REMARK  16 active torsions:
REMARK  status: ('A' for Active; 'I' for Inactive)
REMARK    1  A    between atoms: O_1  and  C_2 
REMARK    2  A    between atoms: C_2  and  C_3 
REMARK    3  A    between atoms: C_3  and  N_4 
REMARK    4  A    between atoms: N_4  and  C_5 
REMARK    5  A    between atoms: C_5  and  C_6 
REMARK    6  A    between atoms: C_6  and  N_7 
REMARK    7  A    between atoms: N_7  and  C_8 
REMARK    8  A    between atoms: C_11  and  N_26 
REMARK    9  A    between atoms: C_17  and  O_18 
REMARK   10  A    between atoms: C_21  and  O_22 
REMARK   11  A    between atoms: N_26  and  C_27 
REMARK   12  A    between atoms: C_27  and  C_28 
REMARK   13  A    between atoms: C_28  and  N_29 
REMARK   14  A    between atoms: N_29  and  C_30 
REMARK   15  A    between atoms: C_30  and  C_31 
REMARK   16  A    between atoms: C_31  and  O_32 
ROOT
ATOM      1  C   UNL d   1       8.338  -3.966   1.990  0.00  0.00     0.043 A 
ATOM      2  C   UNL d   1       9.278  -2.937   2.061  0.00  0.00     0.032 A 
ATOM      3  C   UNL d   1      10.639  -3.197   2.111  0.00  0.00     0.032 A 
ATOM      4  C   UNL d   1      11.136  -4.504   2.136  0.00  0.00     0.043 A 
ATOM      5  C   UNL d   1      10.208  -5.575   2.023  0.00  0.00     0.058 A 
ATOM      6  C   UNL d   1       8.827  -5.303   1.955  0.00  0.00     0.058 A 
ATOM      7  C   UNL d   1       7.874  -6.439   1.837  0.00  0.00     0.199 A 
ATOM      8  O   UNL d   1       6.671  -6.251   1.654  0.00  0.00    -0.286 OA
ATOM      9  C   UNL d   1       8.343  -7.833   1.918  0.00  0.00     0.065 A 
ATOM     10  C   UNL d   1       7.411  -8.892   1.881  0.00  0.00     0.081 A 
ATOM     11  C   UNL d   1       7.823 -10.219   1.938  0.00  0.00     0.040 A 
ATOM     12  C   UNL d   1       9.178 -10.511   2.039  0.00  0.00     0.040 A 
ATOM     13  C   UNL d   1      10.111  -9.467   2.083  0.00  0.00     0.081 A 
ATOM     14  C   UNL d   1       9.705  -8.117   2.013  0.00  0.00     0.065 A 
ATOM     15  C   UNL d   1      10.682  -6.992   2.027  0.00  0.00     0.199 A 
ATOM     16  O   UNL d   1      11.886  -7.217   2.045  0.00  0.00    -0.286 OA
ENDROOT
BRANCH   1  17
ATOM     17  N   UNL d   1       6.980  -3.685   2.096  0.00  0.00    -0.387 N 
ATOM     18  H   UNL d   1       6.365  -4.419   1.731  0.00  0.00     0.159 HD
BRANCH  17  19
ATOM     19  C   UNL d   1       6.404  -2.343   2.122  0.00  0.00     0.150 C 
BRANCH  19  20
ATOM     20  C   UNL d   1       6.253  -1.737   0.714  0.00  0.00     0.289 C 
BRANCH  20  21
ATOM     21  N   UNL d   1       5.229  -2.452  -0.052  0.00  0.00     0.087 N 
ATOM     22  H   UNL d   1       5.505  -3.434  -0.152  0.00  0.00     0.316 HD
BRANCH  21  23
ATOM     23  C   UNL d   1       5.076  -1.898  -1.401  0.00  0.00     0.295 C 
BRANCH  23  24
ATOM     24  C   UNL d   1       4.022  -2.702  -2.166  0.00  0.00     0.194 C 
BRANCH  24  25
ATOM     25  O   UNL d   1       4.469  -4.046  -2.342  0.00  0.00    -0.399 OA
ATOM     26  H   UNL d   1       3.723  -4.541  -2.721  0.00  0.00     0.209 HD
ENDBRANCH  24  25
ENDBRANCH  23  24
ENDBRANCH  21  23
ENDBRANCH  20  21
ENDBRANCH  19  20
ENDBRANCH  17  19
ENDBRANCH   1  17
BRANCH   4  27
ATOM     27  N   UNL d   1      12.524  -4.682   2.208  0.00  0.00    -0.387 N 
ATOM     28  H   UNL d   1      12.808  -5.673   2.240  0.00  0.00     0.159 HD
BRANCH  27  29
ATOM     29  C   UNL d   1      13.287  -3.819   3.118  0.00  0.00     0.150 C 
BRANCH  29  30
ATOM     30  C   UNL d   1      14.437  -4.584   3.800  0.00  0.00     0.289 C 
BRANCH  30  31
ATOM     31  N   UNL d   1      15.344  -5.186   2.816  0.00  0.00     0.087 N 
ATOM     32  H   UNL d   1      15.720  -4.444   2.228  0.00  0.00     0.316 HD
BRANCH  31  33
ATOM     33  C   UNL d   1      16.442  -5.900   3.474  0.00  0.00     0.295 C 
BRANCH  33  34
ATOM     34  C   UNL d   1      17.338  -6.571   2.430  0.00  0.00     0.194 C 
BRANCH  34  35
ATOM     35  O   UNL d   1      17.880  -5.596   1.540  0.00  0.00    -0.399 OA
ATOM     36  H   UNL d   1      17.131  -5.308   0.988  0.00  0.00     0.209 HD
ENDBRANCH  34  35
ENDBRANCH  33  34
ENDBRANCH  31  33
ENDBRANCH  30  31
ENDBRANCH  29  30
ENDBRANCH  27  29
ENDBRANCH   4  27
BRANCH  10  37
ATOM     37  O   UNL d   1       6.056  -8.703   1.791  0.00  0.00    -0.360 OA
ATOM     38  H   UNL d   1       5.888  -7.736   1.724  0.00  0.00     0.217 HD
ENDBRANCH  10  37
BRANCH  13  39
ATOM     39  O   UNL d   1      11.428  -9.806   2.200  0.00  0.00    -0.360 OA
ATOM     40  H   UNL d   1      11.543 -10.768   2.171  0.00  0.00     0.217 HD
ENDBRANCH  13  39
TORSDOF 16
