@<TRIPOS>MOLECULE
2KGP_MIX_A_26
 60 62 0 0 0
SMALL
GASTEIGER

@<TRIPOS>ATOM
      1 O           4.4690   -4.0459   -2.3418 O.3     1  UNL1       -0.3938
      2 C           4.0222   -2.7016   -2.1664 C.3     1  UNL1        0.0567
      3 C           5.0761   -1.8976   -1.4007 C.3     1  UNL1        0.0192
      4 N           5.2290   -2.4522   -0.0517 N.3     1  UNL1       -0.3123
      5 C           6.2534   -1.7367    0.7143 C.3     1  UNL1        0.0115
      6 C           6.4036   -2.3427    2.1222 C.3     1  UNL1        0.0217
      7 N           6.9798   -3.6846    2.0958 N.pl3   1  UNL1       -0.3421
      8 C           8.3376   -3.9656    1.9905 C.ar    1  UNL1        0.0389
      9 C           9.2783   -2.9370    2.0605 C.ar    1  UNL1       -0.0384
     10 C          10.6390   -3.1974    2.1107 C.ar    1  UNL1       -0.0384
     11 C          11.1364   -4.5043    2.1361 C.ar    1  UNL1        0.0389
     12 C          10.2076   -5.5748    2.0235 C.ar    1  UNL1        0.0558
     13 C           8.8270   -5.3033    1.9551 C.ar    1  UNL1        0.0558
     14 C           7.8742   -6.4385    1.8369 C.2     1  UNL1        0.1999
     15 O           6.6708   -6.2506    1.6536 O.2     1  UNL1       -0.2864
     16 C           8.3426   -7.8332    1.9178 C.ar    1  UNL1        0.0780
     17 C           7.4109   -8.8918    1.8814 C.ar    1  UNL1        0.1286
     18 O           6.0562   -8.7025    1.7913 O.3     1  UNL1       -0.5060
     19 C           7.8232  -10.2187    1.9377 C.ar    1  UNL1       -0.0160
     20 C           9.1779  -10.5112    2.0395 C.ar    1  UNL1       -0.0160
     21 C          10.1107   -9.4672    2.0832 C.ar    1  UNL1        0.1286
     22 O          11.4284   -9.8057    2.2002 O.3     1  UNL1       -0.5060
     23 C           9.7051   -8.1167    2.0132 C.ar    1  UNL1        0.0780
     24 C          10.6825   -6.9919    2.0270 C.2     1  UNL1        0.1999
     25 O          11.8862   -7.2167    2.0454 O.2     1  UNL1       -0.2864
     26 N          12.5240   -4.6821    2.2081 N.pl3   1  UNL1       -0.3421
     27 C          13.2871   -3.8190    3.1176 C.3     1  UNL1        0.0217
     28 C          14.4373   -4.5841    3.7998 C.3     1  UNL1        0.0115
     29 N          15.3435   -5.1859    2.8159 N.3     1  UNL1       -0.3123
     30 C          16.4416   -5.8999    3.4743 C.3     1  UNL1        0.0192
     31 C          17.3383   -6.5708    2.4299 C.3     1  UNL1        0.0567
     32 O          17.8799   -5.5960    1.5395 O.3     1  UNL1       -0.3938
     33 H           3.7229   -4.5408   -2.7209 H       1  UNL1        0.2095
     34 H           3.0691   -2.7122   -1.6261 H       1  UNL1        0.0570
     35 H           3.8599   -2.2652   -3.1560 H       1  UNL1        0.0570
     36 H           4.7621   -0.8494   -1.3460 H       1  UNL1        0.0446
     37 H           6.0322   -1.9542   -1.9345 H       1  UNL1        0.0446
     38 H           5.5049   -3.4342   -0.1521 H       1  UNL1        0.1221
     39 H           5.9586   -0.6870    0.8231 H       1  UNL1        0.0439
     40 H           7.2133   -1.7632    0.1853 H       1  UNL1        0.0439
     41 H           5.4172   -2.4077    2.5955 H       1  UNL1        0.0474
     42 H           6.9858   -1.6724    2.7652 H       1  UNL1        0.0474
     43 H           6.3651   -4.4190    1.7306 H       1  UNL1        0.1461
     44 H           8.9797   -1.8942    2.0752 H       1  UNL1        0.0637
     45 H          11.3200   -2.3504    2.1366 H       1  UNL1        0.0637
     46 H           5.8884   -7.7356    1.7241 H       1  UNL1        0.2922
     47 H           7.0873  -11.0193    1.9009 H       1  UNL1        0.0655
     48 H           9.4883  -11.5510    2.0836 H       1  UNL1        0.0655
     49 H          11.5426  -10.7684    2.1708 H       1  UNL1        0.2922
     50 H          12.8082   -5.6734    2.2399 H       1  UNL1        0.1461
     51 H          12.6543   -3.4027    3.9118 H       1  UNL1        0.0474
     52 H          13.6962   -2.9789    2.5427 H       1  UNL1        0.0474
     53 H          14.0121   -5.3641    4.4427 H       1  UNL1        0.0439
     54 H          14.9880   -3.8826    4.4387 H       1  UNL1        0.0439
     55 H          15.7205   -4.4441    2.2279 H       1  UNL1        0.1221
     56 H          16.0488   -6.6670    4.1511 H       1  UNL1        0.0446
     57 H          17.0373   -5.1886    4.0583 H       1  UNL1        0.0446
     58 H          16.7838   -7.3108    1.8422 H       1  UNL1        0.0570
     59 H          18.1717   -7.0799    2.9224 H       1  UNL1        0.0570
     60 H          17.1308   -5.3083    0.9877 H       1  UNL1        0.2095
@<TRIPOS>BOND
     1     1     2    1
     2     1    33    1
     3     2     3    1
     4     2    34    1
     5     2    35    1
     6     3     4    1
     7     3    36    1
     8     3    37    1
     9     4     5    1
    10     4    38    1
    11     5     6    1
    12     5    39    1
    13     5    40    1
    14     6     7    1
    15     6    41    1
    16     6    42    1
    17     7     8    1
    18     7    43    1
    19     8     9   ar
    20     8    13   ar
    21     9    10   ar
    22     9    44    1
    23    10    11   ar
    24    10    45    1
    25    11    12   ar
    26    11    26    1
    27    12    13   ar
    28    12    24    1
    29    13    14    1
    30    14    15    2
    31    14    16    1
    32    16    17   ar
    33    16    23   ar
    34    17    18    1
    35    17    19   ar
    36    18    46    1
    37    19    20   ar
    38    19    47    1
    39    20    21   ar
    40    20    48    1
    41    21    22    1
    42    21    23   ar
    43    22    49    1
    44    23    24    1
    45    24    25    2
    46    26    27    1
    47    26    50    1
    48    27    28    1
    49    27    51    1
    50    27    52    1
    51    28    29    1
    52    28    53    1
    53    28    54    1
    54    29    30    1
    55    29    55    1
    56    30    31    1
    57    30    56    1
    58    30    57    1
    59    31    32    1
    60    31    58    1
    61    31    59    1
    62    32    60    1
