2KGP_MIX_A_26
 OpenBabel03221817243D

 60 62  0  0  0  0  0  0  0  0999 V2000
    4.4690   -4.0459   -2.3418 O   0  0  0  0  0  0  0  0  0  0  0  0
    4.0222   -2.7016   -2.1664 C   0  0  0  0  0  0  0  0  0  0  0  0
    5.0761   -1.8976   -1.4007 C   0  0  0  0  0  0  0  0  0  0  0  0
    5.2290   -2.4522   -0.0517 N   0  0  0  0  0  0  0  0  0  0  0  0
    6.2534   -1.7367    0.7143 C   0  0  0  0  0  0  0  0  0  0  0  0
    6.4036   -2.3427    2.1222 C   0  0  0  0  0  0  0  0  0  0  0  0
    6.9798   -3.6846    2.0958 N   0  0  0  0  0  0  0  0  0  0  0  0
    8.3376   -3.9656    1.9905 C   0  0  0  0  0  0  0  0  0  0  0  0
    9.2783   -2.9370    2.0605 C   0  0  0  0  0  0  0  0  0  0  0  0
   10.6390   -3.1974    2.1107 C   0  0  0  0  0  0  0  0  0  0  0  0
   11.1364   -4.5043    2.1361 C   0  0  0  0  0  0  0  0  0  0  0  0
   10.2076   -5.5748    2.0235 C   0  0  0  0  0  0  0  0  0  0  0  0
    8.8270   -5.3033    1.9551 C   0  0  0  0  0  0  0  0  0  0  0  0
    7.8742   -6.4385    1.8369 C   0  0  0  0  0  0  0  0  0  0  0  0
    6.6708   -6.2506    1.6536 O   0  0  0  0  0  0  0  0  0  0  0  0
    8.3426   -7.8332    1.9178 C   0  0  0  0  0  0  0  0  0  0  0  0
    7.4109   -8.8918    1.8814 C   0  0  0  0  0  0  0  0  0  0  0  0
    6.0562   -8.7025    1.7913 O   0  0  0  0  0  0  0  0  0  0  0  0
    7.8232  -10.2187    1.9377 C   0  0  0  0  0  0  0  0  0  0  0  0
    9.1779  -10.5112    2.0395 C   0  0  0  0  0  0  0  0  0  0  0  0
   10.1107   -9.4672    2.0832 C   0  0  0  0  0  0  0  0  0  0  0  0
   11.4284   -9.8057    2.2002 O   0  0  0  0  0  0  0  0  0  0  0  0
    9.7051   -8.1167    2.0132 C   0  0  0  0  0  0  0  0  0  0  0  0
   10.6825   -6.9919    2.0270 C   0  0  0  0  0  0  0  0  0  0  0  0
   11.8862   -7.2167    2.0454 O   0  0  0  0  0  0  0  0  0  0  0  0
   12.5240   -4.6821    2.2081 N   0  0  0  0  0  0  0  0  0  0  0  0
   13.2871   -3.8190    3.1176 C   0  0  0  0  0  0  0  0  0  0  0  0
   14.4373   -4.5841    3.7998 C   0  0  0  0  0  0  0  0  0  0  0  0
   15.3435   -5.1859    2.8159 N   0  0  0  0  0  0  0  0  0  0  0  0
   16.4416   -5.8999    3.4743 C   0  0  0  0  0  0  0  0  0  0  0  0
   17.3383   -6.5708    2.4299 C   0  0  0  0  0  0  0  0  0  0  0  0
   17.8799   -5.5960    1.5395 O   0  0  0  0  0  0  0  0  0  0  0  0
    3.7229   -4.5408   -2.7209 H   0  0  0  0  0  0  0  0  0  0  0  0
    3.0691   -2.7122   -1.6261 H   0  0  0  0  0  0  0  0  0  0  0  0
    3.8599   -2.2652   -3.1560 H   0  0  0  0  0  0  0  0  0  0  0  0
    4.7621   -0.8494   -1.3460 H   0  0  0  0  0  0  0  0  0  0  0  0
    6.0322   -1.9542   -1.9345 H   0  0  0  0  0  0  0  0  0  0  0  0
    5.5049   -3.4342   -0.1521 H   0  0  0  0  0  0  0  0  0  0  0  0
    5.9586   -0.6870    0.8231 H   0  0  0  0  0  0  0  0  0  0  0  0
    7.2133   -1.7632    0.1853 H   0  0  0  0  0  0  0  0  0  0  0  0
    5.4172   -2.4077    2.5955 H   0  0  0  0  0  0  0  0  0  0  0  0
    6.9858   -1.6724    2.7652 H   0  0  0  0  0  0  0  0  0  0  0  0
    6.3651   -4.4190    1.7306 H   0  0  0  0  0  0  0  0  0  0  0  0
    8.9797   -1.8942    2.0752 H   0  0  0  0  0  0  0  0  0  0  0  0
   11.3200   -2.3504    2.1366 H   0  0  0  0  0  0  0  0  0  0  0  0
    5.8884   -7.7356    1.7241 H   0  0  0  0  0  0  0  0  0  0  0  0
    7.0873  -11.0193    1.9009 H   0  0  0  0  0  0  0  0  0  0  0  0
    9.4883  -11.5510    2.0836 H   0  0  0  0  0  0  0  0  0  0  0  0
   11.5426  -10.7684    2.1708 H   0  0  0  0  0  0  0  0  0  0  0  0
   12.8082   -5.6734    2.2399 H   0  0  0  0  0  0  0  0  0  0  0  0
   12.6543   -3.4027    3.9118 H   0  0  0  0  0  0  0  0  0  0  0  0
   13.6962   -2.9789    2.5427 H   0  0  0  0  0  0  0  0  0  0  0  0
   14.0121   -5.3641    4.4427 H   0  0  0  0  0  0  0  0  0  0  0  0
   14.9880   -3.8826    4.4387 H   0  0  0  0  0  0  0  0  0  0  0  0
   15.7205   -4.4441    2.2279 H   0  0  0  0  0  0  0  0  0  0  0  0
   16.0488   -6.6670    4.1511 H   0  0  0  0  0  0  0  0  0  0  0  0
   17.0373   -5.1886    4.0583 H   0  0  0  0  0  0  0  0  0  0  0  0
   16.7838   -7.3108    1.8422 H   0  0  0  0  0  0  0  0  0  0  0  0
   18.1717   -7.0799    2.9224 H   0  0  0  0  0  0  0  0  0  0  0  0
   17.1308   -5.3083    0.9877 H   0  0  0  0  0  0  0  0  0  0  0  0
  1  2  1  0  0  0  0
  1 33  1  0  0  0  0
  2  3  1  0  0  0  0
  2 34  1  0  0  0  0
  2 35  1  0  0  0  0
  3  4  1  0  0  0  0
  3 36  1  0  0  0  0
  3 37  1  0  0  0  0
  4  5  1  0  0  0  0
  4 38  1  0  0  0  0
  5  6  1  0  0  0  0
  5 39  1  0  0  0  0
  5 40  1  0  0  0  0
  6  7  1  0  0  0  0
  6 41  1  0  0  0  0
  6 42  1  0  0  0  0
  7  8  1  0  0  0  0
  7 43  1  0  0  0  0
  8  9  2  0  0  0  0
  8 13  1  0  0  0  0
  9 10  1  0  0  0  0
  9 44  1  0  0  0  0
 10 11  2  0  0  0  0
 10 45  1  0  0  0  0
 11 12  1  0  0  0  0
 11 26  1  0  0  0  0
 12 13  2  0  0  0  0
 12 24  1  0  0  0  0
 13 14  1  0  0  0  0
 14 15  2  0  0  0  0
 14 16  1  0  0  0  0
 16 17  2  0  0  0  0
 16 23  1  0  0  0  0
 17 18  1  0  0  0  0
 17 19  1  0  0  0  0
 18 46  1  0  0  0  0
 19 20  2  0  0  0  0
 19 47  1  0  0  0  0
 20 21  1  0  0  0  0
 20 48  1  0  0  0  0
 21 22  1  0  0  0  0
 21 23  2  0  0  0  0
 22 49  1  0  0  0  0
 23 24  1  0  0  0  0
 24 25  2  0  0  0  0
 26 27  1  0  0  0  0
 26 50  1  0  0  0  0
 27 28  1  0  0  0  0
 27 51  1  0  0  0  0
 27 52  1  0  0  0  0
 28 29  1  0  0  0  0
 28 53  1  0  0  0  0
 28 54  1  0  0  0  0
 29 30  1  0  0  0  0
 29 55  1  0  0  0  0
 30 31  1  0  0  0  0
 30 56  1  0  0  0  0
 30 57  1  0  0  0  0
 31 32  1  0  0  0  0
 31 58  1  0  0  0  0
 31 59  1  0  0  0  0
 32 60  1  0  0  0  0
M  END
$$$$
