@<TRIPOS>MOLECULE
ligand.pdb
 22 21 0 0 0
SMALL
GASTEIGER

@<TRIPOS>ATOM
      1 N1          2.6836   -0.2340   -1.1939 N.3     1  <1>        -0.3178
      2 C1          2.0610    0.3294    0.0066 C.3     1  <1>         0.1123
      3 H1          1.0031    0.0342    0.0276 H       1  <1>         0.0582
      4 C2          2.7807   -0.1274    1.2820 C.3     1  <1>         0.0193
      5 S1          2.8689   -1.9516    1.4120 S.3     1  <1>        -0.1574
      6 C3          1.2835   -2.2462    2.2523 C.3     1  <1>         0.0061
      7 C4          1.1041   -3.7338    2.5433 C.3     1  <1>         0.0021
      8 N2          0.0594   -3.9602    3.5416 N.3     1  <1>        -0.3292
      9 C5          2.1416    1.8452   -0.0922 C.2     1  <1>         0.3225
     10 O1          2.8801    2.4673   -0.8464 O.2     1  <1>        -0.2492
     11 O2          1.3409    2.4547    0.8225 O.3     1  <1>        -0.4795
     12 H2          3.6989   -0.1707   -1.1311 H       1  <1>         0.1190
     13 H3          2.4146    0.3000   -2.0172 H       1  <1>         0.1190
     14 H4          3.8067    0.2573    1.3232 H       1  <1>         0.0397
     15 H5          2.2667    0.2640    2.1684 H       1  <1>         0.0397
     16 H6          1.2873   -1.6561    3.1734 H       1  <1>         0.0389
     17 H7          0.4698   -1.8890    1.6124 H       1  <1>         0.0389
     18 H8          2.0380   -4.1838    2.8996 H       1  <1>         0.0430
     19 H9          0.8123   -4.2595    1.6264 H       1  <1>         0.0430
     20 H10        -0.3283   -3.0766    3.8679 H       1  <1>         0.1182
     21 H11         0.4594   -4.4139    4.3632 H       1  <1>         0.1182
     22 H12         0.4561    2.0455    0.9292 H       1  <1>         0.2951
@<TRIPOS>BOND
     1     2     1    1
     2     2     3    1
     3     4     2    1
     4     5     4    1
     5     6     5    1
     6     7     6    1
     7     8     7    1
     8     9     2    1
     9    10     9    2
    10    11     9    1
    11     1    12    1
    12     1    13    1
    13     4    14    1
    14     4    15    1
    15     6    16    1
    16     6    17    1
    17     7    18    1
    18     7    19    1
    19     8    20    1
    20     8    21    1
    21    11    22    1
