2LWK_0EC_A_101
 OpenBabel10091713583D
Coordinates from PDB:2LWK:A:101 Model:1 without hydrogens
 40 42  0  0  0  0  0  0  0  0999 V2000
   -6.3540    0.2890    4.0380 C   0  0  0  0  0  0  0  0  0  0  0  0
   -7.4440   -0.0770    4.7030 N   0  0  0  0  0  0  0  0  0  0  0  0
   -8.1180   -1.1490    4.3270 C   0  0  0  0  0  0  0  0  0  0  0  0
   -7.7380   -1.8300    3.2270 C   0  0  0  0  0  0  0  0  0  0  0  0
   -6.6360   -1.4600    2.5610 C   0  0  0  0  0  0  0  0  0  0  0  0
   -6.2560   -2.1240    1.4700 N   0  0  0  0  0  0  0  0  0  0  0  0
   -5.9490   -0.3980    2.9690 N   0  0  0  0  0  0  0  0  0  0  0  0
   -9.2060   -1.5260    5.0190 C   0  0  0  0  0  0  0  0  0  0  0  0
   -9.9980   -2.5250    4.5220 C   0  0  0  0  0  0  0  0  0  0  0  0
  -11.4000   -2.3770    4.6470 O   0  0  0  0  0  0  0  0  0  0  0  0
   -9.5040   -3.3070    3.5480 C   0  0  0  0  0  0  0  0  0  0  0  0
  -10.0600   -4.5960    3.3300 O   0  0  0  0  0  0  0  0  0  0  0  0
   -8.4350   -2.9050    2.8330 C   0  0  0  0  0  0  0  0  0  0  0  0
   -5.6780    1.3540    4.4330 N   0  0  0  0  0  0  0  0  0  0  0  0
   -6.3680    2.2820    5.1030 C   0  0  0  0  0  0  0  0  0  0  0  0
   -7.1650    3.1410    4.1330 C   0  0  0  0  0  0  0  0  0  0  0  0
   -6.3040    3.7800    3.2650 N   0  0  0  0  0  0  0  0  0  0  0  0
   -5.6370    2.8020    2.5600 C   0  0  0  0  0  0  0  0  0  0  0  0
   -4.8360    1.9450    3.5260 C   0  0  0  0  0  0  0  0  0  0  0  0
  -11.7910   -1.2650    3.8830 C   0  0  0  0  0  0  0  0  0  0  0  0
  -11.3630   -4.4460    2.8300 C   0  0  0  0  0  0  0  0  0  0  0  0
   -6.7664   -2.9104    1.1696 H   0  0  0  0  0  0  0  0  0  0  0  0
   -5.4648   -1.8282    0.9643 H   0  0  0  0  0  0  0  0  0  0  0  0
   -9.4413   -1.0683    5.9135 H   0  0  0  0  0  0  0  0  0  0  0  0
   -8.1541   -3.4226    1.9856 H   0  0  0  0  0  0  0  0  0  0  0  0
   -5.6888    2.9023    5.6496 H   0  0  0  0  0  0  0  0  0  0  0  0
   -7.0422    1.7981    5.7784 H   0  0  0  0  0  0  0  0  0  0  0  0
   -7.7248    3.8703    4.6805 H   0  0  0  0  0  0  0  0  0  0  0  0
   -7.8345    2.5195    3.5758 H   0  0  0  0  0  0  0  0  0  0  0  0
   -5.6386    4.3490    3.7883 H   0  0  0  0  0  0  0  0  0  0  0  0
   -4.9752    3.2586    1.8540 H   0  0  0  0  0  0  0  0  0  0  0  0
   -6.3437    2.1903    2.0392 H   0  0  0  0  0  0  0  0  0  0  0  0
   -4.3145    1.1871    2.9796 H   0  0  0  0  0  0  0  0  0  0  0  0
   -4.1343    2.5625    4.0467 H   0  0  0  0  0  0  0  0  0  0  0  0
  -12.8498   -1.1325    3.9620 H   0  0  0  0  0  0  0  0  0  0  0  0
  -11.5270   -1.4255    2.8586 H   0  0  0  0  0  0  0  0  0  0  0  0
  -11.2940   -0.3899    4.2465 H   0  0  0  0  0  0  0  0  0  0  0  0
  -11.7936   -5.4109    2.6613 H   0  0  0  0  0  0  0  0  0  0  0  0
  -11.3311   -3.9036    1.9082 H   0  0  0  0  0  0  0  0  0  0  0  0
  -11.9576   -3.9092    3.5393 H   0  0  0  0  0  0  0  0  0  0  0  0
  1 14  1  0  0  0  0
  1  2  1  0  0  0  0
  3  2  2  0  0  0  0
  3  8  1  0  0  0  0
  4  3  1  0  0  0  0
  5  4  2  0  0  0  0
  5  7  1  0  0  0  0
  6  5  1  0  0  0  0
  6 22  1  0  0  0  0
  6 23  1  0  0  0  0
  7  1  2  0  0  0  0
  8 24  1  0  0  0  0
  9  8  2  0  0  0  0
  9 10  1  0  0  0  0
 11  9  1  0  0  0  0
 12 11  1  0  0  0  0
 13  4  1  0  0  0  0
 13 11  2  0  0  0  0
 13 25  1  0  0  0  0
 14 15  1  0  0  0  0
 15 26  1  0  0  0  0
 15 27  1  0  0  0  0
 16 15  1  0  0  0  0
 16 28  1  0  0  0  0
 16 29  1  0  0  0  0
 17 16  1  0  0  0  0
 17 30  1  0  0  0  0
 18 17  1  0  0  0  0
 18 19  1  0  0  0  0
 18 31  1  0  0  0  0
 18 32  1  0  0  0  0
 19 14  1  0  0  0  0
 19 33  1  0  0  0  0
 19 34  1  0  0  0  0
 20 10  1  0  0  0  0
 20 35  1  0  0  0  0
 20 36  1  0  0  0  0
 20 37  1  0  0  0  0
 21 12  1  0  0  0  0
 21 38  1  0  0  0  0
 21 39  1  0  0  0  0
 21 40  1  0  0  0  0
M  END
$$$$
