@<TRIPOS>MOLECULE
2LWK_0EC_A_101
 21 23 0 0 0
SMALL
GASTEIGER
****
Coordinates from PDB:2LWK:A:101 Model:1 without hydrogens
@<TRIPOS>ATOM
      1 C          -6.3540    0.2890    4.0380 C.ar    1  UNL1        0.2215
      2 N          -7.4440   -0.0770    4.7030 N.ar    1  UNL1       -0.2134
      3 C          -8.1180   -1.1490    4.3270 C.ar    1  UNL1        0.0902
      4 C          -7.7380   -1.8300    3.2270 C.ar    1  UNL1        0.0558
      5 C          -6.6360   -1.4600    2.5610 C.ar    1  UNL1        0.1740
      6 N          -6.2560   -2.1240    1.4700 N.pl3   1  UNL1       -0.1071
      7 N          -5.9490   -0.3980    2.9690 N.ar    1  UNL1       -0.1954
      8 C          -9.2060   -1.5260    5.0190 C.ar    1  UNL1        0.0593
      9 C          -9.9980   -2.5250    4.5220 C.ar    1  UNL1        0.1739
     10 O         -11.4000   -2.3770    4.6470 O.3     1  UNL1       -0.4683
     11 C          -9.5040   -3.3070    3.5480 C.ar    1  UNL1        0.1726
     12 O         -10.0600   -4.5960    3.3300 O.3     1  UNL1       -0.4684
     13 C          -8.4350   -2.9050    2.8330 C.ar    1  UNL1        0.0444
     14 N          -5.6780    1.3540    4.4330 N.pl3   1  UNL1       -0.2752
     15 C          -6.3680    2.2820    5.1030 C.3     1  UNL1        0.1124
     16 C          -7.1650    3.1410    4.1330 C.3     1  UNL1        0.1102
     17 N          -6.3040    3.7800    3.2650 N.3     1  UNL1       -0.2144
     18 C          -5.6370    2.8020    2.5600 C.3     1  UNL1        0.1102
     19 C          -4.8360    1.9450    3.5260 C.3     1  UNL1        0.1124
     20 C         -11.7910   -1.2650    3.8830 C.3     1  UNL1        0.2526
     21 C         -11.3630   -4.4460    2.8300 C.3     1  UNL1        0.2526
@<TRIPOS>BOND
     1     1    14    1
     2     1     2   ar
     3     3     2   ar
     4     3     8   ar
     5     4     3   ar
     6     5     4   ar
     7     5     7   ar
     8     6     5    1
     9     7     1   ar
    10     9     8   ar
    11     9    10    1
    12    11     9   ar
    13    12    11    1
    14    13     4   ar
    15    13    11   ar
    16    14    15    1
    17    16    15    1
    18    17    16    1
    19    18    17    1
    20    18    19    1
    21    19    14    1
    22    20    10    1
    23    21    12    1
