2LWK_0EC_A_101
 OpenBabel10091713583D
Coordinates from PDB:2LWK:A:101 Model:1 without hydrogens
 40 42  0  0  0  0  0  0  0  0999 V2000
   -6.3540    0.2890    4.0380 C   0  0  0  0  0  0  0  0  0  0  0  0
   -7.4440   -0.0770    4.7030 N   0  0  0  0  0  0  0  0  0  0  0  0
   -8.1180   -1.1490    4.3270 C   0  0  0  0  0  0  0  0  0  0  0  0
   -7.7380   -1.8300    3.2270 C   0  0  0  0  0  0  0  0  0  0  0  0
   -6.6360   -1.4600    2.5610 C   0  0  0  0  0  0  0  0  0  0  0  0
   -6.2560   -2.1240    1.4700 N   0  0  0  0  0  0  0  0  0  0  0  0
   -5.9490   -0.3980    2.9690 N   0  0  0  0  0  0  0  0  0  0  0  0
   -9.2060   -1.5260    5.0190 C   0  0  0  0  0  0  0  0  0  0  0  0
   -9.9980   -2.5250    4.5220 C   0  0  0  0  0  0  0  0  0  0  0  0
  -11.4000   -2.3770    4.6470 O   0  0  0  0  0  0  0  0  0  0  0  0
   -9.5040   -3.3070    3.5480 C   0  0  0  0  0  0  0  0  0  0  0  0
  -10.0600   -4.5960    3.3300 O   0  0  0  0  0  0  0  0  0  0  0  0
   -8.4350   -2.9050    2.8330 C   0  0  0  0  0  0  0  0  0  0  0  0
   -5.6780    1.3540    4.4330 N   0  0  0  0  0  0  0  0  0  0  0  0
   -6.3680    2.2820    5.1030 C   0  0  0  0  0  0  0  0  0  0  0  0
   -7.1650    3.1410    4.1330 C   0  0  0  0  0  0  0  0  0  0  0  0
   -6.3040    3.7800    3.2650 N   0  0  0  0  0  0  0  0  0  0  0  0
   -5.6370    2.8020    2.5600 C   0  0  0  0  0  0  0  0  0  0  0  0
   -4.8360    1.9450    3.5260 C   0  0  0  0  0  0  0  0  0  0  0  0
  -11.7910   -1.2650    3.8830 C   0  0  0  0  0  0  0  0  0  0  0  0
  -11.3630   -4.4460    2.8300 C   0  0  0  0  0  0  0  0  0  0  0  0
   -6.7664   -2.9104    1.1696 H   0  0  0  0  0  0  0  0  0  0  0  0
   -5.4648   -1.8282    0.9643 H   0  0  0  0  0  0  0  0  0  0  0  0
   -9.4413   -1.0683    5.9135 H   0  0  0  0  0  0  0  0  0  0  0  0
   -8.1541   -3.4226    1.9856 H   0  0  0  0  0  0  0  0  0  0  0  0
   -5.6888    2.9023    5.6496 H   0  0  0  0  0  0  0  0  0  0  0  0
   -7.0422    1.7981    5.7784 H   0  0  0  0  0  0  0  0  0  0  0  0
   -7.7248    3.8703    4.6805 H   0  0  0  0  0  0  0  0  0  0  0  0
   -7.8345    2.5195    3.5758 H   0  0  0  0  0  0  0  0  0  0  0  0
   -5.6386    4.3490    3.7883 H   0  0  0  0  0  0  0  0  0  0  0  0
   -4.9752    3.2586    1.8540 H   0  0  0  0  0  0  0  0  0  0  0  0
   -6.3437    2.1903    2.0392 H   0  0  0  0  0  0  0  0  0  0  0  0
   -4.3145    1.1871    2.9796 H   0  0  0  0  0  0  0  0  0  0  0  0
   -4.1343    2.5625    4.0467 H   0  0  0  0  0  0  0  0  0  0  0  0
  -12.8498   -1.1325    3.9620 H   0  0  0  0  0  0  0  0  0  0  0  0
  -11.5270   -1.4255    2.8586 H   0  0  0  0  0  0  0  0  0  0  0  0
  -11.2940   -0.3899    4.2465 H   0  0  0  0  0  0  0  0  0  0  0  0
  -11.7936   -5.4109    2.6613 H   0  0  0  0  0  0  0  0  0  0  0  0
  -11.3311   -3.9036    1.9082 H   0  0  0  0  0  0  0  0  0  0  0  0
  -11.9576   -3.9092    3.5393 H   0  0  0  0  0  0  0  0  0  0  0  0
  1 14  1  0  0  0  0
  1  2  1  0  0  0  0
  3  2  2  0  0  0  0
  3  8  1  0  0  0  0
  4  3  1  0  0  0  0
  5  4  2  0  0  0  0
  5  7  1  0  0  0  0
  6  5  1  0  0  0  0
  6 22  1  0  0  0  0
  6 23  1  0  0  0  0
  7  1  2  0  0  0  0
  8 24  1  0  0  0  0
  9  8  2  0  0  0  0
  9 10  1  0  0  0  0
 11  9  1  0  0  0  0
 12 11  1  0  0  0  0
 13  4  1  0  0  0  0
 13 11  2  0  0  0  0
 13 25  1  0  0  0  0
 14 15  1  0  0  0  0
 15 26  1  0  0  0  0
 15 27  1  0  0  0  0
 16 15  1  0  0  0  0
 16 28  1  0  0  0  0
 16 29  1  0  0  0  0
 17 16  1  0  0  0  0
 17 30  1  0  0  0  0
 18 17  1  0  0  0  0
 18 19  1  0  0  0  0
 18 31  1  0  0  0  0
 18 32  1  0  0  0  0
 19 14  1  0  0  0  0
 19 33  1  0  0  0  0
 19 34  1  0  0  0  0
 20 10  1  0  0  0  0
 20 35  1  0  0  0  0
 20 36  1  0  0  0  0
 20 37  1  0  0  0  0
 21 12  1  0  0  0  0
 21 38  1  0  0  0  0
 21 39  1  0  0  0  0
 21 40  1  0  0  0  0
A    1
C1
A    2
N2
A    3
C3
A    4
C4
A    5
C5
A    6
N5
A    7
N6
A    8
C7
A    9
C8
A   10
O8
A   11
C9
A   12
O9
A   13
C10
A   14
N11
A   15
C12
A   16
C13
A   17
N14
A   18
C15
A   19
C16
A   20
C8A
A   21
C9A
M  END
>  <InstanceId>
2LWK_0EC_A_101

>  <ChemCompId>
0EC

>  <PdbId>
2LWK

>  <ChainId>
A

>  <ResidueNumber>
101

>  <InsertionCode>


>  <Model>
1

>  <AltIds>


>  <MissingHeavyAtoms>
0

>  <ObservedFormula>
C14 N5 O2

>  <Name>
6,7-dimethoxy-2-(piperazin-1-yl)quinazolin-4-amine

>  <SystematicName>
6,7-dimethoxy-2-piperazin-1-yl-quinazolin-4-amine

>  <Synonyms>


>  <Type>
NON-POLYMER

>  <Formula>
C14 H19 N5 O2

>  <MolecularWeight>
289.333

>  <ModifiedDate>
2012-08-24

>  <Parent>


>  <OneLetterCode>


>  <SubcomponentList>


>  <AmbiguousFlag>
N

>  <InChI>
InChI=1S/C14H19N5O2/c1-20-11-7-9-10(8-12(11)21-2)17-14(18-13(9)15)19-5-3-16-4-6-19/h7-8,16H,3-6H2,1-2H3,(H2,15,17,18)

>  <InChIKey>
APKHJGDGWQDBGM-UHFFFAOYSA-N

>  <SMILES>
COc1cc2c(cc1OC)nc(nc2N)N3CCNCC3

$$$$
