4P5J_SPM_A_115
 OpenBabel10091713583D
Coordinates from PDB:4P5J:A:115 Model:1 without hydrogens
 14 13  0  0  0  0  0  0  0  0999 V2000
   34.0330   44.8980   39.1870 N   0  0  0  0  0  0  0  0  0  0  0  0
   32.6950   44.3390   39.2930 C   0  0  0  0  0  0  0  0  0  0  0  0
   31.6760   45.4460   39.5420 C   0  0  0  0  0  0  0  0  0  0  0  0
   31.5170   46.3340   38.3130 C   0  0  0  0  0  0  0  0  0  0  0  0
   31.4310   47.7530   38.6450 N   0  0  0  0  0  0  0  0  0  0  0  0
   30.7280   48.6770   37.7710 C   0  0  0  0  0  0  0  0  0  0  0  0
   31.4970   49.9730   37.5390 C   0  0  0  0  0  0  0  0  0  0  0  0
   30.5510   51.1650   37.6320 C   0  0  0  0  0  0  0  0  0  0  0  0
   30.1090   51.3620   39.0780 C   0  0  0  0  0  0  0  0  0  0  0  0
   28.6660   51.2790   39.2240 N   0  0  0  0  0  0  0  0  0  0  0  0
   28.0180   51.9650   40.3340 C   0  0  0  0  0  0  0  0  0  0  0  0
   26.4930   52.0000   40.2600 C   0  0  0  0  0  0  0  0  0  0  0  0
   25.9100   52.7270   41.4730 C   0  0  0  0  0  0  0  0  0  0  0  0
   26.2250   54.1440   41.4090 N   0  0  0  0  0  0  0  0  0  0  0  0
  1  2  1  0  0  0  0
  2  3  1  0  0  0  0
  3  4  1  0  0  0  0
  4  5  1  0  0  0  0
  5  6  1  0  0  0  0
  6  7  1  0  0  0  0
  7  8  1  0  0  0  0
  8  9  1  0  0  0  0
  9 10  1  0  0  0  0
 10 11  1  0  0  0  0
 11 12  1  0  0  0  0
 12 13  1  0  0  0  0
 13 14  1  0  0  0  0
A    1
N1
A    2
C2
A    3
C3
A    4
C4
A    5
N5
A    6
C6
A    7
C7
A    8
C8
A    9
C9
A   10
N10
A   11
C11
A   12
C12
A   13
C13
A   14
N14
M  END
>  <InstanceId>
4P5J_SPM_A_115

>  <ChemCompId>
SPM

>  <PdbId>
4P5J

>  <ChainId>
A

>  <ResidueNumber>
115

>  <InsertionCode>


>  <Model>
1

>  <AltIds>


>  <MissingHeavyAtoms>
0

>  <ObservedFormula>
C10 N4

>  <Name>
SPERMINE

>  <SystematicName>
N,N'-bis(3-aminopropyl)butane-1,4-diamine

>  <Synonyms>


>  <Type>
NON-POLYMER

>  <Formula>
C10 H26 N4

>  <MolecularWeight>
202.34

>  <ModifiedDate>
2011-06-04

>  <Parent>


>  <OneLetterCode>


>  <SubcomponentList>


>  <AmbiguousFlag>
N

>  <InChI>
InChI=1S/C10H26N4/c11-5-3-9-13-7-1-2-8-14-10-4-6-12/h13-14H,1-12H2

>  <InChIKey>
PFNFFQXMRSDOHW-UHFFFAOYSA-N

>  <SMILES>
C(CCNCCCN)CNCCCN

$$$$
