4P5J_SPM_A_115
 OpenBabel10091713583D
Coordinates from PDB:4P5J:A:115 Model:1 without hydrogens
 40 39  0  0  0  0  0  0  0  0999 V2000
   34.0330   44.8980   39.1870 N   0  0  0  0  0  0  0  0  0  0  0  0
   32.6950   44.3390   39.2930 C   0  0  0  0  0  0  0  0  0  0  0  0
   31.6760   45.4460   39.5420 C   0  0  0  0  0  0  0  0  0  0  0  0
   31.5170   46.3340   38.3130 C   0  0  0  0  0  0  0  0  0  0  0  0
   31.4310   47.7530   38.6450 N   0  0  0  0  0  0  0  0  0  0  0  0
   30.7280   48.6770   37.7710 C   0  0  0  0  0  0  0  0  0  0  0  0
   31.4970   49.9730   37.5390 C   0  0  0  0  0  0  0  0  0  0  0  0
   30.5510   51.1650   37.6320 C   0  0  0  0  0  0  0  0  0  0  0  0
   30.1090   51.3620   39.0780 C   0  0  0  0  0  0  0  0  0  0  0  0
   28.6660   51.2790   39.2240 N   0  0  0  0  0  0  0  0  0  0  0  0
   28.0180   51.9650   40.3340 C   0  0  0  0  0  0  0  0  0  0  0  0
   26.4930   52.0000   40.2600 C   0  0  0  0  0  0  0  0  0  0  0  0
   25.9100   52.7270   41.4730 C   0  0  0  0  0  0  0  0  0  0  0  0
   26.2250   54.1440   41.4090 N   0  0  0  0  0  0  0  0  0  0  0  0
   34.7030   44.1471   39.0208 H   0  0  0  0  0  0  0  0  0  0  0  0
   34.2701   45.3793   40.0545 H   0  0  0  0  0  0  0  0  0  0  0  0
   32.6665   43.6438   40.1059 H   0  0  0  0  0  0  0  0  0  0  0  0
   32.4521   43.8425   38.3768 H   0  0  0  0  0  0  0  0  0  0  0  0
   32.0051   46.0449   40.3653 H   0  0  0  0  0  0  0  0  0  0  0  0
   30.7305   44.9944   39.7589 H   0  0  0  0  0  0  0  0  0  0  0  0
   30.6229   46.0488   37.7990 H   0  0  0  0  0  0  0  0  0  0  0  0
   32.3865   46.1987   37.7043 H   0  0  0  0  0  0  0  0  0  0  0  0
   32.3896   48.0937   38.7190 H   0  0  0  0  0  0  0  0  0  0  0  0
   29.7834   48.9147   38.2139 H   0  0  0  0  0  0  0  0  0  0  0  0
   30.6122   48.1971   36.8217 H   0  0  0  0  0  0  0  0  0  0  0  0
   31.9441   49.9505   36.5671 H   0  0  0  0  0  0  0  0  0  0  0  0
   32.2569   50.0688   38.2861 H   0  0  0  0  0  0  0  0  0  0  0  0
   29.6923   50.9856   37.0194 H   0  0  0  0  0  0  0  0  0  0  0  0
   31.0573   52.0451   37.2943 H   0  0  0  0  0  0  0  0  0  0  0  0
   30.4346   52.3256   39.4102 H   0  0  0  0  0  0  0  0  0  0  0  0
   30.5453   50.5813   39.6654 H   0  0  0  0  0  0  0  0  0  0  0  0
   28.4326   50.2897   39.3094 H   0  0  0  0  0  0  0  0  0  0  0  0
   28.3738   52.9739   40.3556 H   0  0  0  0  0  0  0  0  0  0  0  0
   28.2650   51.4123   41.2163 H   0  0  0  0  0  0  0  0  0  0  0  0
   26.1192   50.9977   40.2380 H   0  0  0  0  0  0  0  0  0  0  0  0
   26.2033   52.5235   39.3729 H   0  0  0  0  0  0  0  0  0  0  0  0
   26.3266   52.3125   42.3672 H   0  0  0  0  0  0  0  0  0  0  0  0
   24.8469   52.6058   41.4745 H   0  0  0  0  0  0  0  0  0  0  0  0
   27.2375   54.2675   41.4072 H   0  0  0  0  0  0  0  0  0  0  0  0
   25.8261   54.6179   42.2194 H   0  0  0  0  0  0  0  0  0  0  0  0
  1  2  1  0  0  0  0
  1 15  1  0  0  0  0
  1 16  1  0  0  0  0
  2  3  1  0  0  0  0
  2 17  1  0  0  0  0
  2 18  1  0  0  0  0
  3  4  1  0  0  0  0
  3 19  1  0  0  0  0
  3 20  1  0  0  0  0
  4  5  1  0  0  0  0
  4 21  1  0  0  0  0
  4 22  1  0  0  0  0
  5  6  1  0  0  0  0
  5 23  1  0  0  0  0
  6  7  1  0  0  0  0
  6 24  1  0  0  0  0
  6 25  1  0  0  0  0
  7  8  1  0  0  0  0
  7 26  1  0  0  0  0
  7 27  1  0  0  0  0
  8  9  1  0  0  0  0
  8 28  1  0  0  0  0
  8 29  1  0  0  0  0
  9 10  1  0  0  0  0
  9 30  1  0  0  0  0
  9 31  1  0  0  0  0
 10 11  1  0  0  0  0
 10 32  1  0  0  0  0
 11 12  1  0  0  0  0
 11 33  1  0  0  0  0
 11 34  1  0  0  0  0
 12 13  1  0  0  0  0
 12 35  1  0  0  0  0
 12 36  1  0  0  0  0
 13 14  1  0  0  0  0
 13 37  1  0  0  0  0
 13 38  1  0  0  0  0
 14 39  1  0  0  0  0
 14 40  1  0  0  0  0
A    1
N1
A    2
C2
A    3
C3
A    4
C4
A    5
N5
A    6
C6
A    7
C7
A    8
C8
A    9
C9
A   10
N10
A   11
C11
A   12
C12
A   13
C13
A   14
N14
M  END
>  <InstanceId>
4P5J_SPM_A_115

>  <ChemCompId>
SPM

>  <PdbId>
4P5J

>  <ChainId>
A

>  <ResidueNumber>
115

>  <InsertionCode>


>  <Model>
1

>  <AltIds>


>  <MissingHeavyAtoms>
0

>  <ObservedFormula>
C10 N4

>  <Name>
SPERMINE

>  <SystematicName>
N,N'-bis(3-aminopropyl)butane-1,4-diamine

>  <Synonyms>


>  <Type>
NON-POLYMER

>  <Formula>
C10 H26 N4

>  <MolecularWeight>
202.34

>  <ModifiedDate>
2011-06-04

>  <Parent>


>  <OneLetterCode>


>  <SubcomponentList>


>  <AmbiguousFlag>
N

>  <InChI>
InChI=1S/C10H26N4/c11-5-3-9-13-7-1-2-8-14-10-4-6-12/h13-14H,1-12H2

>  <InChIKey>
PFNFFQXMRSDOHW-UHFFFAOYSA-N

>  <SMILES>
C(CCNCCCN)CNCCCN

$$$$
