@<TRIPOS>MOLECULE
4P5J_SPM_A_115
 14 13 0 0 0
SMALL
GASTEIGER
****
Coordinates from PDB:4P5J:A:115 Model:1 without hydrogens
@<TRIPOS>ATOM
      1 N          34.0330   44.8980   39.1870 N.3     1  UNL1       -0.1313
      2 C          32.6950   44.3390   39.2930 C.3     1  UNL1        0.1108
      3 C          31.6760   45.4460   39.5420 C.3     1  UNL1        0.0393
      4 C          31.5170   46.3340   38.3130 C.3     1  UNL1        0.0902
      5 N          31.4310   47.7530   38.6450 N.3     1  UNL1       -0.2180
      6 C          30.7280   48.6770   37.7710 C.3     1  UNL1        0.0887
      7 C          31.4970   49.9730   37.5390 C.3     1  UNL1        0.0203
      8 C          30.5510   51.1650   37.6320 C.3     1  UNL1        0.0203
      9 C          30.1090   51.3620   39.0780 C.3     1  UNL1        0.0887
     10 N          28.6660   51.2790   39.2240 N.3     1  UNL1       -0.2180
     11 C          28.0180   51.9650   40.3340 C.3     1  UNL1        0.0902
     12 C          26.4930   52.0000   40.2600 C.3     1  UNL1        0.0393
     13 C          25.9100   52.7270   41.4730 C.3     1  UNL1        0.1108
     14 N          26.2250   54.1440   41.4090 N.3     1  UNL1       -0.1313
@<TRIPOS>BOND
     1     1     2    1
     2     2     3    1
     3     3     4    1
     4     4     5    1
     5     5     6    1
     6     6     7    1
     7     7     8    1
     8     8     9    1
     9     9    10    1
    10    10    11    1
    11    11    12    1
    12    12    13    1
    13    13    14    1
