@<TRIPOS>MOLECULE
1FUF_SPM_B_98
 14 13 0 0 0
SMALL
GASTEIGER
****
Coordinates from PDB:1FUF:B:98 Model:1 without hydrogens
@<TRIPOS>ATOM
      1 N          -7.0540    1.0600    9.2150 N.3     1  UNL1       -0.1313
      2 C          -5.6610    1.6900    9.1890 C.3     1  UNL1        0.1108
      3 C          -4.8010    0.7850    9.9940 C.3     1  UNL1        0.0393
      4 C          -3.3430    1.2070   10.0760 C.3     1  UNL1        0.0902
      5 N          -2.4790   -0.0020   10.1400 N.3     1  UNL1       -0.2180
      6 C          -1.0030    0.4290   10.2140 C.3     1  UNL1        0.0887
      7 C          -0.2760   -0.9380   10.6320 C.3     1  UNL1        0.0203
      8 C           1.0060   -0.8430   10.3750 C.3     1  UNL1        0.0203
      9 C           1.3980   -2.3800   10.7820 C.3     1  UNL1        0.0887
     10 N           2.8620   -2.3870   10.2270 N.3     1  UNL1       -0.2180
     11 C           3.6150   -3.7590   10.4500 C.3     1  UNL1        0.0902
     12 C           5.1120   -3.5560    9.8290 C.3     1  UNL1        0.0393
     13 C           5.4870   -4.9300    9.3550 C.3     1  UNL1        0.1108
     14 N           6.4100   -4.7080    8.1800 N.3     1  UNL1       -0.1313
@<TRIPOS>BOND
     1     1     2    1
     2     2     3    1
     3     3     4    1
     4     4     5    1
     5     5     6    1
     6     6     7    1
     7     7     8    1
     8     8     9    1
     9     9    10    1
    10    10    11    1
    11    11    12    1
    12    12    13    1
    13    13    14    1
