ligands/ligand.pdb
 OpenBabel10091713573D

 40 39  0  0  0  0  0  0  0  0999 V2000
   -7.0540    1.0600    9.2150 N   0  0  0  0  0  0  0  0  0  0  0  0
   -5.6610    1.6900    9.1890 C   0  0  0  0  0  0  0  0  0  0  0  0
   -4.8010    0.7850    9.9940 C   0  0  0  0  0  0  0  0  0  0  0  0
   -3.3430    1.2070   10.0760 C   0  0  0  0  0  0  0  0  0  0  0  0
   -2.4790   -0.0020   10.1400 N   0  0  0  0  0  0  0  0  0  0  0  0
   -1.0030    0.4290   10.2140 C   0  0  0  0  0  0  0  0  0  0  0  0
   -0.2760   -0.9380   10.6320 C   0  0  0  0  0  0  0  0  0  0  0  0
    1.0060   -0.8430   10.3750 C   0  0  0  0  0  0  0  0  0  0  0  0
    1.3980   -2.3800   10.7820 C   0  0  0  0  0  0  0  0  0  0  0  0
    2.8620   -2.3870   10.2270 N   0  0  0  0  0  0  0  0  0  0  0  0
    3.6150   -3.7590   10.4500 C   0  0  0  0  0  0  0  0  0  0  0  0
    5.1120   -3.5560    9.8290 C   0  0  0  0  0  0  0  0  0  0  0  0
    5.4870   -4.9300    9.3550 C   0  0  0  0  0  0  0  0  0  0  0  0
    6.4100   -4.7080    8.1800 N   0  0  0  0  0  0  0  0  0  0  0  0
   -7.6986    1.6378    8.6754 H   0  0  0  0  0  0  0  0  0  0  0  0
   -7.3803    0.9962   10.1793 H   0  0  0  0  0  0  0  0  0  0  0  0
   -5.6846    2.6676    9.6232 H   0  0  0  0  0  0  0  0  0  0  0  0
   -5.2943    1.8014    8.1900 H   0  0  0  0  0  0  0  0  0  0  0  0
   -4.8422   -0.1909    9.5572 H   0  0  0  0  0  0  0  0  0  0  0  0
   -5.1821    0.8131   10.9934 H   0  0  0  0  0  0  0  0  0  0  0  0
   -3.1923    1.7998   10.9539 H   0  0  0  0  0  0  0  0  0  0  0  0
   -3.0889    1.7811    9.2096 H   0  0  0  0  0  0  0  0  0  0  0  0
   -2.6263   -0.5703    9.3059 H   0  0  0  0  0  0  0  0  0  0  0  0
   -0.8566    1.1888   10.9531 H   0  0  0  0  0  0  0  0  0  0  0  0
   -0.6320    0.8540    9.3048 H   0  0  0  0  0  0  0  0  0  0  0  0
   -0.6932   -1.7499   10.0738 H   0  0  0  0  0  0  0  0  0  0  0  0
   -0.4199   -1.1154   11.6773 H   0  0  0  0  0  0  0  0  0  0  0  0
    1.4954   -0.1178   10.9910 H   0  0  0  0  0  0  0  0  0  0  0  0
    1.2771   -0.5216    9.3911 H   0  0  0  0  0  0  0  0  0  0  0  0
    0.7758   -3.0999   10.2926 H   0  0  0  0  0  0  0  0  0  0  0  0
    1.2867   -2.6346   11.8153 H   0  0  0  0  0  0  0  0  0  0  0  0
    3.3885   -1.6499   10.6960 H   0  0  0  0  0  0  0  0  0  0  0  0
    3.1052   -4.5501    9.9408 H   0  0  0  0  0  0  0  0  0  0  0  0
    3.6526   -4.0218   11.4865 H   0  0  0  0  0  0  0  0  0  0  0  0
    5.7931   -3.2115   10.5788 H   0  0  0  0  0  0  0  0  0  0  0  0
    5.1427   -2.8243    9.0488 H   0  0  0  0  0  0  0  0  0  0  0  0
    4.6162   -5.4721    9.0504 H   0  0  0  0  0  0  0  0  0  0  0  0
    5.9549   -5.5045   10.1270 H   0  0  0  0  0  0  0  0  0  0  0  0
    5.9284   -4.1584    7.4684 H   0  0  0  0  0  0  0  0  0  0  0  0
    6.6828   -5.6088    7.7869 H   0  0  0  0  0  0  0  0  0  0  0  0
  1  2  1  0  0  0  0
  1 15  1  0  0  0  0
  1 16  1  0  0  0  0
  2  3  1  0  0  0  0
  2 17  1  0  0  0  0
  2 18  1  0  0  0  0
  3  4  1  0  0  0  0
  3 19  1  0  0  0  0
  3 20  1  0  0  0  0
  4  5  1  0  0  0  0
  4 21  1  0  0  0  0
  4 22  1  0  0  0  0
  5  6  1  0  0  0  0
  5 23  1  0  0  0  0
  6  7  1  0  0  0  0
  6 24  1  0  0  0  0
  6 25  1  0  0  0  0
  7  8  1  0  0  0  0
  7 26  1  0  0  0  0
  7 27  1  0  0  0  0
  8  9  1  0  0  0  0
  8 28  1  0  0  0  0
  8 29  1  0  0  0  0
  9 10  1  0  0  0  0
  9 30  1  0  0  0  0
  9 31  1  0  0  0  0
 10 11  1  0  0  0  0
 10 32  1  0  0  0  0
 11 12  1  0  0  0  0
 11 33  1  0  0  0  0
 11 34  1  0  0  0  0
 12 13  1  0  0  0  0
 12 35  1  0  0  0  0
 12 36  1  0  0  0  0
 13 14  1  0  0  0  0
 13 37  1  0  0  0  0
 13 38  1  0  0  0  0
 14 39  1  0  0  0  0
 14 40  1  0  0  0  0
M  END
$$$$
