REMARK  11 active torsions:
REMARK  status: ('A' for Active; 'I' for Inactive)
REMARK    1  A    between atoms: C_2  and  C_3 
REMARK    2  A    between atoms: C_3  and  C_4 
REMARK    3  A    between atoms: C_4  and  N_5 
REMARK    4  A    between atoms: N_5  and  C_6 
REMARK    5  A    between atoms: C_6  and  C_7 
REMARK    6  A    between atoms: C_7  and  C_8 
REMARK    7  A    between atoms: C_8  and  C_9 
REMARK    8  A    between atoms: C_9  and  N_10 
REMARK    9  A    between atoms: N_10  and  C_11 
REMARK   10  A    between atoms: C_11  and  C_12 
REMARK   11  A    between atoms: C_12  and  C_13 
ROOT
ATOM      1  C   UNL d   1      -0.276  -0.938  10.632  0.00  0.00     0.040 C 
ENDROOT
BRANCH   1   2
ATOM      2  C   UNL d   1      -1.003   0.429  10.214  0.00  0.00     0.290 C 
BRANCH   2   3
ATOM      3  N   UNL d   1      -2.479  -0.002  10.140  0.00  0.00     0.339 N 
BRANCH   3   4
ATOM      4  C   UNL d   1      -3.343   1.207  10.076  0.00  0.00     0.292 C 
BRANCH   4   5
ATOM      5  C   UNL d   1      -4.801   0.785   9.994  0.00  0.00     0.079 C 
BRANCH   5   6
ATOM      6  C   UNL d   1      -5.661   1.690   9.189  0.00  0.00     0.341 C 
ATOM      7  N   UNL d   1      -7.054   1.060   9.215  0.00  0.00     0.618 N 
ENDBRANCH   5   6
ENDBRANCH   4   5
ENDBRANCH   3   4
ENDBRANCH   2   3
ENDBRANCH   1   2
BRANCH   1   8
ATOM      8  C   UNL d   1       1.006  -0.843  10.375  0.00  0.00     0.040 C 
BRANCH   8   9
ATOM      9  C   UNL d   1       1.398  -2.380  10.782  0.00  0.00     0.290 C 
BRANCH   9  10
ATOM     10  N   UNL d   1       2.862  -2.387  10.227  0.00  0.00     0.339 N 
BRANCH  10  11
ATOM     11  C   UNL d   1       3.615  -3.759  10.450  0.00  0.00     0.292 C 
BRANCH  11  12
ATOM     12  C   UNL d   1       5.112  -3.556   9.829  0.00  0.00     0.079 C 
BRANCH  12  13
ATOM     13  C   UNL d   1       5.487  -4.930   9.355  0.00  0.00     0.341 C 
ATOM     14  N   UNL d   1       6.410  -4.708   8.180  0.00  0.00     0.618 N 
ENDBRANCH  12  13
ENDBRANCH  11  12
ENDBRANCH  10  11
ENDBRANCH   9  10
ENDBRANCH   8   9
ENDBRANCH   1   8
TORSDOF 11
