1FUF_SPM_B_98
 OpenBabel10091713573D
Coordinates from PDB:1FUF:B:98 Model:1 without hydrogens
 14 13  0  0  0  0  0  0  0  0999 V2000
   -7.0540    1.0600    9.2150 N   0  0  0  0  0  0  0  0  0  0  0  0
   -5.6610    1.6900    9.1890 C   0  0  0  0  0  0  0  0  0  0  0  0
   -4.8010    0.7850    9.9940 C   0  0  0  0  0  0  0  0  0  0  0  0
   -3.3430    1.2070   10.0760 C   0  0  0  0  0  0  0  0  0  0  0  0
   -2.4790   -0.0020   10.1400 N   0  0  0  0  0  0  0  0  0  0  0  0
   -1.0030    0.4290   10.2140 C   0  0  0  0  0  0  0  0  0  0  0  0
   -0.2760   -0.9380   10.6320 C   0  0  0  0  0  0  0  0  0  0  0  0
    1.0060   -0.8430   10.3750 C   0  0  0  0  0  0  0  0  0  0  0  0
    1.3980   -2.3800   10.7820 C   0  0  0  0  0  0  0  0  0  0  0  0
    2.8620   -2.3870   10.2270 N   0  0  0  0  0  0  0  0  0  0  0  0
    3.6150   -3.7590   10.4500 C   0  0  0  0  0  0  0  0  0  0  0  0
    5.1120   -3.5560    9.8290 C   0  0  0  0  0  0  0  0  0  0  0  0
    5.4870   -4.9300    9.3550 C   0  0  0  0  0  0  0  0  0  0  0  0
    6.4100   -4.7080    8.1800 N   0  0  0  0  0  0  0  0  0  0  0  0
  1  2  1  0  0  0  0
  2  3  1  0  0  0  0
  3  4  1  0  0  0  0
  4  5  1  0  0  0  0
  5  6  1  0  0  0  0
  6  7  1  0  0  0  0
  7  8  1  0  0  0  0
  8  9  1  0  0  0  0
  9 10  1  0  0  0  0
 10 11  1  0  0  0  0
 11 12  1  0  0  0  0
 12 13  1  0  0  0  0
 13 14  1  0  0  0  0
A    1
N1
A    2
C2
A    3
C3
A    4
C4
A    5
N5
A    6
C6
A    7
C7
A    8
C8
A    9
C9
A   10
N10
A   11
C11
A   12
C12
A   13
C13
A   14
N14
M  END
>  <InstanceId>
1FUF_SPM_B_98

>  <ChemCompId>
SPM

>  <PdbId>
1FUF

>  <ChainId>
B

>  <ResidueNumber>
98

>  <InsertionCode>


>  <Model>
1

>  <AltIds>


>  <MissingHeavyAtoms>
0

>  <ObservedFormula>
C10 N4

>  <Name>
SPERMINE

>  <SystematicName>
N,N'-bis(3-aminopropyl)butane-1,4-diamine

>  <Synonyms>


>  <Type>
NON-POLYMER

>  <Formula>
C10 H26 N4

>  <MolecularWeight>
202.34

>  <ModifiedDate>
2011-06-04

>  <Parent>


>  <OneLetterCode>


>  <SubcomponentList>


>  <AmbiguousFlag>
N

>  <InChI>
InChI=1S/C10H26N4/c11-5-3-9-13-7-1-2-8-14-10-4-6-12/h13-14H,1-12H2

>  <InChIKey>
PFNFFQXMRSDOHW-UHFFFAOYSA-N

>  <SMILES>
C(CCNCCCN)CNCCCN

$$$$
