@<TRIPOS>MOLECULE
1J7T_PAR_A_45
 87 90 0 0 0
SMALL
GASTEIGER

@<TRIPOS>ATOM
      1 C           4.9781   16.2354    3.1225 C.3     1  UNL1        0.1776
      2 H           4.6669   16.4841    4.1377 H       1  UNL1        0.0927
      3 O           3.8212   16.1713    2.2913 O.3     1  UNL1       -0.3422
      4 C           2.7396   15.3131    2.6983 C.3     1  UNL1        0.1055
      5 H           1.9078   15.6155    2.0487 H       1  UNL1        0.0639
      6 C           2.2694   15.5437    4.1777 C.3     1  UNL1        0.0355
      7 H           3.1068   15.3516    4.8574 H       1  UNL1        0.0485
      8 C           1.1366   14.5964    4.6027 C.3     1  UNL1       -0.0175
      9 C           1.5093   13.1446    4.2984 C.3     1  UNL1        0.0351
     10 H           2.4493   12.9108    4.8173 H       1  UNL1        0.0485
     11 N           0.5336   12.1970    4.8418 N.3     1  UNL1       -0.3250
     12 C           1.7357   12.9953    2.7659 C.3     1  UNL1        0.0990
     13 H           0.8719   13.3941    2.2134 H       1  UNL1        0.0636
     14 C           3.0074   13.8050    2.4150 C.3     1  UNL1        0.1166
     15 H           3.7876   13.4672    3.1058 H       1  UNL1        0.0650
     16 O           3.5638   13.4509    1.1456 O.3     1  UNL1       -0.3402
     17 C           3.0411   14.0294   -0.0380 C.3     1  UNL1        0.1884
     18 H           2.9342   15.1112    0.0767 H       1  UNL1        0.0938
     19 C           4.0377   13.7124   -1.1643 C.3     1  UNL1        0.1345
     20 H           4.2750   12.6420   -1.1583 H       1  UNL1        0.0671
     21 O           5.2820   14.3908   -1.0558 O.3     1  UNL1       -0.3841
     22 C           3.2043   14.0624   -2.3870 C.3     1  UNL1        0.1205
     23 H           3.5706   13.6381   -3.3255 H       1  UNL1        0.0651
     24 O           3.0111   15.4792   -2.5666 O.3     1  UNL1       -0.3410
     25 C           4.1438   16.2867   -2.9184 C.3     1  UNL1        0.1776
     26 H           4.9422   16.1539   -2.1922 H       1  UNL1        0.0927
     27 C           3.6912   17.7778   -2.8569 C.3     1  UNL1        0.0853
     28 H           3.2856   17.9851   -1.8618 H       1  UNL1        0.0535
     29 N           2.6066   18.0286   -3.8485 N.3     1  UNL1       -0.3211
     30 C           4.9153   18.6867   -3.1172 C.3     1  UNL1        0.1033
     31 H           4.5596   19.7213   -3.1921 H       1  UNL1        0.0637
     32 O           5.8470   18.7041   -2.0294 O.3     1  UNL1       -0.3874
     33 C           5.6154   18.3117   -4.4324 C.3     1  UNL1        0.1100
     34 H           6.5882   18.8274   -4.4789 H       1  UNL1        0.0646
     35 O           4.8479   18.7787   -5.5478 O.3     1  UNL1       -0.3866
     36 C           5.8508   16.7823   -4.5272 C.3     1  UNL1        0.1022
     37 H           6.6177   16.4804   -3.8004 H       1  UNL1        0.0636
     38 O           4.6487   16.0212   -4.2375 O.3     1  UNL1       -0.3425
     39 C           6.3302   16.3824   -5.9431 C.3     1  UNL1        0.0222
     40 N           7.5459   17.0859   -6.3904 N.3     1  UNL1       -0.3276
     41 C           1.8317   13.4765   -1.9441 C.3     1  UNL1        0.1135
     42 H           1.0049   14.1210   -2.2648 H       1  UNL1        0.0647
     43 O           1.8042   13.4664   -0.4784 O.3     1  UNL1       -0.3405
     44 C           1.5429   12.0487   -2.4342 C.3     1  UNL1        0.0730
     45 O           2.5497   11.1209   -2.0424 O.3     1  UNL1       -0.3924
     46 O           1.8545   11.6227    2.3929 O.3     1  UNL1       -0.3876
     47 N           1.8227   16.9251    4.4149 N.3     1  UNL1       -0.3250
     48 C           5.8834   17.4016    2.6150 C.3     1  UNL1        0.0853
     49 H           5.3013   18.3292    2.6624 H       1  UNL1        0.0535
     50 N           6.3018   17.2238    1.1977 N.3     1  UNL1       -0.3211
     51 C           7.1056   17.4959    3.5628 C.3     1  UNL1        0.1033
     52 H           7.7968   18.2485    3.1556 H       1  UNL1        0.0637
     53 O           6.7722   17.9490    4.8788 O.3     1  UNL1       -0.3874
     54 C           7.8370   16.1435    3.6676 C.3     1  UNL1        0.1109
     55 H           8.6080   16.1800    4.4465 H       1  UNL1        0.0646
     56 O           8.5033   15.8616    2.4281 O.3     1  UNL1       -0.3865
     57 C           6.8601   14.9889    3.9681 C.3     1  UNL1        0.1129
     58 H           7.3552   14.0469    3.7042 H       1  UNL1        0.0647
     59 O           5.6962   15.0099    3.1200 O.3     1  UNL1       -0.3415
     60 C           6.4787   14.8853    5.4576 C.3     1  UNL1        0.0730
     61 O           5.4759   13.8901    5.6691 O.3     1  UNL1       -0.3924
     62 H           0.2033   14.8586    4.0866 H       1  UNL1        0.0297
     63 H           0.9487   14.7179    5.6786 H       1  UNL1        0.0297
     64 H          -0.1396   11.9315    4.1218 H       1  UNL1        0.1185
     65 H           0.0084   12.6104    5.6107 H       1  UNL1        0.1185
     66 H           5.3107   14.7760   -0.1606 H       1  UNL1        0.2101
     67 H           2.8328   17.4554   -4.6720 H       1  UNL1        0.1187
     68 H           2.6477   18.9870   -4.1835 H       1  UNL1        0.1187
     69 H           6.1477   17.8019   -1.8216 H       1  UNL1        0.2100
     70 H           4.7053   19.7352   -5.4349 H       1  UNL1        0.2100
     71 H           5.5308   16.5458   -6.6742 H       1  UNL1        0.0448
     72 H           6.5292   15.3058   -5.9557 H       1  UNL1        0.0448
     73 H           7.3106   18.0707   -6.5321 H       1  UNL1        0.1183
     74 H           7.7872   16.7439   -7.3195 H       1  UNL1        0.1183
     75 H           0.5939   11.6842   -2.0230 H       1  UNL1        0.0584
     76 H           1.4691   12.0240   -3.5259 H       1  UNL1        0.0584
     77 H           2.4595   11.0149   -1.0746 H       1  UNL1        0.2095
     78 H           2.2657   11.1544    3.1369 H       1  UNL1        0.2100
     79 H           2.6071   17.5697    4.3594 H       1  UNL1        0.1185
     80 H           1.4265   17.0167    5.3502 H       1  UNL1        0.1185
     81 H           6.8627   16.3635    1.1526 H       1  UNL1        0.1187
     82 H           6.9271   17.9818    0.9274 H       1  UNL1        0.1187
     83 H           5.8231   18.1527    4.9464 H       1  UNL1        0.2100
     84 H           9.1309   16.5880    2.2596 H       1  UNL1        0.2100
     85 H           7.3587   14.6201    6.0540 H       1  UNL1        0.0584
     86 H           6.0747   15.8156    5.8582 H       1  UNL1        0.0584
     87 H           5.6695   13.1507    5.0651 H       1  UNL1        0.2095
@<TRIPOS>BOND
     1     1    48    1
     2     1    59    1
     3     1     3    1
     4     1     2    1
     5     4     6    1
     6     4     5    1
     7     4     3    1
     8     6     7    1
     9     6     8    1
    10     6    47    1
    11     8     9    1
    12     8    62    1
    13     8    63    1
    14     9    12    1
    15     9    11    1
    16     9    10    1
    17    11    64    1
    18    11    65    1
    19    12    13    1
    20    12    14    1
    21    12    46    1
    22    14     4    1
    23    14    16    1
    24    14    15    1
    25    16    17    1
    26    17    18    1
    27    17    19    1
    28    17    43    1
    29    19    22    1
    30    19    21    1
    31    19    20    1
    32    21    66    1
    33    22    23    1
    34    22    24    1
    35    22    41    1
    36    25    27    1
    37    25    38    1
    38    25    26    1
    39    25    24    1
    40    27    30    1
    41    27    29    1
    42    27    28    1
    43    29    67    1
    44    29    68    1
    45    30    32    1
    46    30    31    1
    47    32    69    1
    48    33    30    1
    49    33    34    1
    50    33    35    1
    51    35    70    1
    52    36    33    1
    53    36    37    1
    54    36    38    1
    55    36    39    1
    56    39    40    1
    57    39    71    1
    58    39    72    1
    59    40    73    1
    60    40    74    1
    61    41    43    1
    62    41    44    1
    63    41    42    1
    64    44    45    1
    65    44    75    1
    66    44    76    1
    67    45    77    1
    68    46    78    1
    69    47    79    1
    70    47    80    1
    71    48    51    1
    72    48    50    1
    73    48    49    1
    74    50    81    1
    75    50    82    1
    76    51    54    1
    77    51    53    1
    78    51    52    1
    79    53    83    1
    80    54    55    1
    81    54    56    1
    82    54    57    1
    83    56    84    1
    84    57    59    1
    85    57    60    1
    86    57    58    1
    87    60    61    1
    88    60    85    1
    89    60    86    1
    90    61    87    1
