@<TRIPOS>MOLECULE
2FCX_XXX_A_101
 22 23 0 0 0
SMALL
GASTEIGER
****
Coordinates from PDB:2FCX:A:101 Model:1 without hydrogens
@<TRIPOS>ATOM
      1 O          34.2630   21.0820   11.7500 O.3     1  UNL1       -0.2177
      2 C          33.4830   20.1570   12.5160 C.3     1  UNL1        0.2119
      3 C          32.6500   19.2750   11.5800 C.3     1  UNL1        0.2020
      4 O          33.5200   18.5140   10.7380 O.3     1  UNL1       -0.2188
      5 C          31.7680   18.3160   12.3850 C.3     1  UNL1        0.1262
      6 N          30.9510   17.4990   11.4730 N.3     1  UNL1       -0.1301
      7 C          30.8520   19.0940   13.3320 C.3     1  UNL1        0.0433
      8 C          31.6980   19.9510   14.2750 C.3     1  UNL1        0.1231
      9 N          30.8140   20.7210   15.1620 N.3     1  UNL1       -0.1302
     10 C          32.5820   20.9250   13.4890 C.3     1  UNL1        0.1681
     11 O          33.3590   21.6980   14.4170 O.3     1  UNL1       -0.3277
     12 C          33.7950   22.9450   13.8520 C.3     1  UNL1        0.2561
     13 O          32.8580   23.9960   14.1440 O.3     1  UNL1       -0.3276
     14 C          32.6200   24.2170   15.5490 C.3     1  UNL1        0.1696
     15 C          31.7200   25.4490   15.6640 C.3     1  UNL1        0.1415
     16 N          30.4590   25.2090   14.9450 N.3     1  UNL1       -0.1286
     17 C          33.9240   24.5130   16.2950 C.3     1  UNL1        0.2122
     18 O          33.6780   24.5160   17.7060 O.3     1  UNL1       -0.2177
     19 C          34.9630   23.4320   15.9930 C.3     1  UNL1        0.2070
     20 O          36.2150   23.7530   16.6050 O.3     1  UNL1       -0.2186
     21 C          35.1430   23.3060   14.4790 C.3     1  UNL1        0.1807
     22 N          36.1190   22.2500   14.1780 N.3     1  UNL1       -0.1248
@<TRIPOS>BOND
     1     2     1    1
     2     2     3    1
     3     2    10    1
     4     3     4    1
     5     3     5    1
     6     5     6    1
     7     5     7    1
     8     7     8    1
     9     8     9    1
    10     8    10    1
    11    10    11    1
    12    12    11    1
    13    12    13    1
    14    12    21    1
    15    13    14    1
    16    14    15    1
    17    14    17    1
    18    15    16    1
    19    17    18    1
    20    17    19    1
    21    19    20    1
    22    19    21    1
    23    21    22    1
