2FCX_XXX_A_101
 OpenBabel10091713573D
Coordinates from PDB:2FCX:A:101 Model:1 without hydrogens
 22 23  0  0  0  0  0  0  0  0999 V2000
   34.2630   21.0820   11.7500 O   0  0  0  0  0  0  0  0  0  0  0  0
   33.4830   20.1570   12.5160 C   0  0  2  0  0  0  0  0  0  0  0  0
   32.6500   19.2750   11.5800 C   0  0  1  0  0  0  0  0  0  0  0  0
   33.5200   18.5140   10.7380 O   0  0  0  0  0  0  0  0  0  0  0  0
   31.7680   18.3160   12.3850 C   0  0  2  0  0  0  0  0  0  0  0  0
   30.9510   17.4990   11.4730 N   0  0  0  0  0  0  0  0  0  0  0  0
   30.8520   19.0940   13.3320 C   0  0  0  0  0  0  0  0  0  0  0  0
   31.6980   19.9510   14.2750 C   0  0  2  0  0  0  0  0  0  0  0  0
   30.8140   20.7210   15.1620 N   0  0  0  0  0  0  0  0  0  0  0  0
   32.5820   20.9250   13.4890 C   0  0  1  0  0  0  0  0  0  0  0  0
   33.3590   21.6980   14.4170 O   0  0  0  0  0  0  0  0  0  0  0  0
   33.7950   22.9450   13.8520 C   0  0  1  0  0  0  0  0  0  0  0  0
   32.8580   23.9960   14.1440 O   0  0  0  0  0  0  0  0  0  0  0  0
   32.6200   24.2170   15.5490 C   0  0  2  0  0  0  0  0  0  0  0  0
   31.7200   25.4490   15.6640 C   0  0  0  0  0  0  0  0  0  0  0  0
   30.4590   25.2090   14.9450 N   0  0  0  0  0  0  0  0  0  0  0  0
   33.9240   24.5130   16.2950 C   0  0  1  0  0  0  0  0  0  0  0  0
   33.6780   24.5160   17.7060 O   0  0  0  0  0  0  0  0  0  0  0  0
   34.9630   23.4320   15.9930 C   0  0  2  0  0  0  0  0  0  0  0  0
   36.2150   23.7530   16.6050 O   0  0  0  0  0  0  0  0  0  0  0  0
   35.1430   23.3060   14.4790 C   0  0  1  0  0  0  0  0  0  0  0  0
   36.1190   22.2500   14.1780 N   0  0  0  0  0  0  0  0  0  0  0  0
  2  1  1  6  0  0  0
  2  3  1  0  0  0  0
  2 10  1  0  0  0  0
  3  4  1  6  0  0  0
  3  5  1  0  0  0  0
  5  6  1  6  0  0  0
  5  7  1  0  0  0  0
  7  8  1  0  0  0  0
  8  9  1  1  0  0  0
  8 10  1  0  0  0  0
 10 11  1  1  0  0  0
 12 11  1  1  0  0  0
 12 13  1  0  0  0  0
 12 21  1  0  0  0  0
 13 14  1  0  0  0  0
 14 15  1  6  0  0  0
 14 17  1  0  0  0  0
 15 16  1  0  0  0  0
 17 18  1  1  0  0  0
 17 19  1  0  0  0  0
 19 20  1  1  0  0  0
 19 21  1  0  0  0  0
 21 22  1  1  0  0  0
A    1
O3
A    2
C4
A    3
C5
A    4
O4
A    5
C6
A    6
N1
A    7
C7
A    8
C8
A    9
N2
A   10
C9
A   11
O5
A   12
C10
A   13
O6
A   14
C11
A   15
C12
A   16
N3
A   17
C13
A   18
O7
A   19
C14
A   20
O8
A   21
C15
A   22
N4
M  END
>  <InstanceId>
2FCX_XXX_A_101

>  <ChemCompId>
XXX

>  <PdbId>
2FCX

>  <ChainId>
A

>  <ResidueNumber>
101

>  <InsertionCode>


>  <Model>
1

>  <AltIds>


>  <MissingHeavyAtoms>
0

>  <ObservedFormula>
C12 N4 O6

>  <Name>
(2R,3S,4R,5R,6R)-6-((1R,2R,3S,4R,6S)-4,6-DIAMINO-2,3-DIHYDROXYCYCLOHEXYLOXY)-5-AMINO-2-(AMINOMETHYL)-TETRAHYDRO-2H-PYRAN-3,4-DIOL

>  <SystematicName>
(2R,3S,4R,5R,6R)-5-amino-2-(aminomethyl)-6-[(1R,2R,3S,4R,6S)-4,6-diamino-2,3-dihydroxy-cyclohexyl]oxy-oxane-3,4-diol

>  <Synonyms>
NEOMYCIN A, NEAMINE

>  <Type>
NON-POLYMER

>  <Formula>
C12 H26 N4 O6

>  <MolecularWeight>
322.358

>  <ModifiedDate>
2011-06-04

>  <Parent>


>  <OneLetterCode>


>  <SubcomponentList>


>  <AmbiguousFlag>
N

>  <InChI>
InChI=1S/C12H26N4O6/c13-2-5-8(18)9(19)6(16)12(21-5)22-11-4(15)1-3(14)7(17)10(11)20/h3-12,17-20H,1-2,13-16H2/t3-,4+,5-,6-,7+,8-,9-,10-,11-,12-/m1/s1

>  <InChIKey>
SYJXFKPQNSDJLI-HKEUSBCWSA-N

>  <SMILES>
C1[C@H]([C@@H]([C@H]([C@@H]([C@H]1N)O[C@@H]2[C@@H]([C@H]([C@@H]([C@H](O2)CN)O)O)N)O)O)N

$$$$
