2FCX_XXX_A_101
 OpenBabel10091713573D
Coordinates from PDB:2FCX:A:101 Model:1 without hydrogens
 48 49  0  0  1  0  0  0  0  0999 V2000
   34.2630   21.0820   11.7500 O   0  0  0  0  0  0  0  0  0  0  0  0
   33.4830   20.1570   12.5160 C   0  0  2  0  0  0  0  0  0  0  0  0
   32.6500   19.2750   11.5800 C   0  0  1  0  0  0  0  0  0  0  0  0
   33.5200   18.5140   10.7380 O   0  0  0  0  0  0  0  0  0  0  0  0
   31.7680   18.3160   12.3850 C   0  0  2  0  0  0  0  0  0  0  0  0
   30.9510   17.4990   11.4730 N   0  0  0  0  0  0  0  0  0  0  0  0
   30.8520   19.0940   13.3320 C   0  0  0  0  0  0  0  0  0  0  0  0
   31.6980   19.9510   14.2750 C   0  0  2  0  0  0  0  0  0  0  0  0
   30.8140   20.7210   15.1620 N   0  0  0  0  0  0  0  0  0  0  0  0
   32.5820   20.9250   13.4890 C   0  0  1  0  0  0  0  0  0  0  0  0
   33.3590   21.6980   14.4170 O   0  0  0  0  0  0  0  0  0  0  0  0
   33.7950   22.9450   13.8520 C   0  0  1  0  0  0  0  0  0  0  0  0
   32.8580   23.9960   14.1440 O   0  0  0  0  0  0  0  0  0  0  0  0
   32.6200   24.2170   15.5490 C   0  0  2  0  0  0  0  0  0  0  0  0
   31.7200   25.4490   15.6640 C   0  0  0  0  0  0  0  0  0  0  0  0
   30.4590   25.2090   14.9450 N   0  0  0  0  0  0  0  0  0  0  0  0
   33.9240   24.5130   16.2950 C   0  0  1  0  0  0  0  0  0  0  0  0
   33.6780   24.5160   17.7060 O   0  0  0  0  0  0  0  0  0  0  0  0
   34.9630   23.4320   15.9930 C   0  0  2  0  0  0  0  0  0  0  0  0
   36.2150   23.7530   16.6050 O   0  0  0  0  0  0  0  0  0  0  0  0
   35.1430   23.3060   14.4790 C   0  0  1  0  0  0  0  0  0  0  0  0
   36.1190   22.2500   14.1780 N   0  0  0  0  0  0  0  0  0  0  0  0
   34.8322   20.5934   11.1351 H   0  0  0  0  0  0  0  0  0  0  0  0
   34.1335   19.5236   13.0822 H   0  0  0  0  0  0  0  0  0  0  0  0
   32.0245   19.9076   10.9854 H   0  0  0  0  0  0  0  0  0  0  0  0
   34.0826   17.9441   11.2853 H   0  0  0  0  0  0  0  0  0  0  0  0
   32.4034   17.6786   12.9637 H   0  0  0  0  0  0  0  0  0  0  0  0
   30.3456   18.1072   10.9217 H   0  0  0  0  0  0  0  0  0  0  0  0
   30.3793   16.8520   12.0160 H   0  0  0  0  0  0  0  0  0  0  0  0
   30.2657   18.4065   13.9052 H   0  0  0  0  0  0  0  0  0  0  0  0
   30.2052   19.7267   12.7608 H   0  0  0  0  0  0  0  0  0  0  0  0
   32.3257   19.2999   14.8468 H   0  0  0  0  0  0  0  0  0  0  0  0
   30.2230   21.3360   14.6026 H   0  0  0  0  0  0  0  0  0  0  0  0
   31.3779   21.2808   15.8016 H   0  0  0  0  0  0  0  0  0  0  0  0
   31.9720   21.5863   12.9098 H   0  0  0  0  0  0  0  0  0  0  0  0
   33.8731   22.8406   12.7900 H   0  0  0  0  0  0  0  0  0  0  0  0
   32.1763   23.3417   15.9756 H   0  0  0  0  0  0  0  0  0  0  0  0
   32.2178   26.2945   15.2371 H   0  0  0  0  0  0  0  0  0  0  0  0
   31.5096   25.6399   16.6956 H   0  0  0  0  0  0  0  0  0  0  0  0
   30.6579   25.0269   13.9613 H   0  0  0  0  0  0  0  0  0  0  0  0
   29.8606   26.0312   15.0244 H   0  0  0  0  0  0  0  0  0  0  0  0
   34.2894   25.4667   15.9759 H   0  0  0  0  0  0  0  0  0  0  0  0
   33.3478   23.6456   17.9785 H   0  0  0  0  0  0  0  0  0  0  0  0
   34.6188   22.5010   16.3925 H   0  0  0  0  0  0  0  0  0  0  0  0
   36.5405   24.5960   16.2525 H   0  0  0  0  0  0  0  0  0  0  0  0
   35.4984   24.2332   14.0805 H   0  0  0  0  0  0  0  0  0  0  0  0
   35.7867   21.3624   14.5551 H   0  0  0  0  0  0  0  0  0  0  0  0
   37.0162   22.4852   14.6025 H   0  0  0  0  0  0  0  0  0  0  0  0
  1  2  1  0  0  0  0
  1 23  1  0  0  0  0
  2  3  1  0  0  0  0
  2 10  1  0  0  0  0
  2 24  1  1  0  0  0
  3  4  1  0  0  0  0
  3  5  1  0  0  0  0
  3 25  1  6  0  0  0
  4 26  1  0  0  0  0
  5  6  1  0  0  0  0
  5  7  1  0  0  0  0
  5 27  1  1  0  0  0
  6 28  1  0  0  0  0
  6 29  1  0  0  0  0
  7  8  1  0  0  0  0
  7 30  1  0  0  0  0
  7 31  1  0  0  0  0
  8  9  1  0  0  0  0
  8 10  1  0  0  0  0
  8 32  1  1  0  0  0
  9 33  1  0  0  0  0
  9 34  1  0  0  0  0
 10 11  1  0  0  0  0
 10 35  1  6  0  0  0
 11 12  1  0  0  0  0
 12 13  1  0  0  0  0
 12 21  1  0  0  0  0
 12 36  1  6  0  0  0
 13 14  1  0  0  0  0
 14 15  1  0  0  0  0
 14 17  1  0  0  0  0
 14 37  1  1  0  0  0
 15 16  1  0  0  0  0
 15 38  1  0  0  0  0
 15 39  1  0  0  0  0
 16 40  1  0  0  0  0
 16 41  1  0  0  0  0
 17 18  1  0  0  0  0
 17 19  1  0  0  0  0
 17 42  1  6  0  0  0
 18 43  1  0  0  0  0
 19 20  1  0  0  0  0
 19 21  1  0  0  0  0
 19 44  1  1  0  0  0
 20 45  1  0  0  0  0
 21 22  1  0  0  0  0
 21 46  1  6  0  0  0
 22 47  1  0  0  0  0
 22 48  1  0  0  0  0
M  END
$$$$
