REMARK  8 active torsions:
REMARK  status: ('A' for Active; 'I' for Inactive)
REMARK    1  A    between atoms: O1_1  and  C1_2 
REMARK    2  A    between atoms: C1_2  and  C2_4 
REMARK    3  A    between atoms: C2_4  and  N1_5 
REMARK    4  A    between atoms: C2_4  and  C3_6 
REMARK    5  A    between atoms: C3_6  and  O3_7 
REMARK    6  A    between atoms: O3_7  and  C4_8 
REMARK    7  A    between atoms: C4_8  and  C5_9 
REMARK    8  A    between atoms: C5_9  and  N2_10 
ROOT
ATOM      1  C2  <1> d           3.114   0.808  -0.875  0.00  0.00     0.337 C 
ENDROOT
BRANCH   1   2
ATOM      2  C1  <1> d           2.365  -0.162   0.039  0.00  0.00     0.176 C 
ATOM      3  O2  <1> d           2.447  -1.379  -0.010  0.00  0.00    -0.648 OA
BRANCH   2   4
ATOM      4  O1  <1> d           1.601   0.500   0.948  0.00  0.00    -0.775 OA
ATOM      5  H2  <1> d           1.762   1.464   0.779  0.00  0.00     0.167 HD
ENDBRANCH   2   4
ENDBRANCH   1   2
BRANCH   1   6
ATOM      6  N1  <1> d           2.663   2.210  -0.573  0.00  0.00     0.095 N 
ATOM      7  H3  <1> d           1.881   2.421  -1.201  0.00  0.00     0.314 HD
ATOM      8  H4  <1> d           3.420   2.821  -0.907  0.00  0.00     0.314 HD
ENDBRANCH   1   6
BRANCH   1   9
ATOM      9  C3  <1> d           4.619   0.634  -0.643  0.00  0.00     0.214 C 
BRANCH   9  10
ATOM     10  O3  <1> d           5.339   1.527  -1.508  0.00  0.00    -0.387 OA
BRANCH  10  11
ATOM     11  C4  <1> d           6.755   1.384  -1.313  0.00  0.00     0.197 C 
BRANCH  11  12
ATOM     12  C5  <1> d           7.513   2.332  -2.248  0.00  0.00     0.292 C 
BRANCH  12  13
ATOM     13  N2  <1> d           7.226   3.736  -1.950  0.00  0.00     0.080 N 
ATOM     14  H11 <1> d           6.217   3.870  -2.027  0.00  0.00     0.312 HD
ATOM     15  H12 <1> d           7.652   4.326  -2.662  0.00  0.00     0.312 HD
ENDBRANCH  12  13
ENDBRANCH  11  12
ENDBRANCH  10  11
ENDBRANCH   9  10
ENDBRANCH   1   9
TORSDOF 8
