ligand.pdb
 OpenBabel03221817293D

 22 21  0  0  1  0  0  0  0  0999 V2000
    1.6012    0.5002    0.9478 O   0  0  0  0  0  0  0  0  0  0  0  0
    2.3647   -0.1622    0.0393 C   0  0  0  0  0  0  0  0  0  0  0  0
    2.4474   -1.3790   -0.0097 O   0  0  0  0  0  0  0  0  0  0  0  0
    3.1143    0.8076   -0.8752 C   0  0  1  0  0  0  0  0  0  0  0  0
    2.8549    0.5963   -1.9177 H   0  0  0  0  0  0  0  0  0  0  0  0
    2.6626    2.2101   -0.5733 N   0  0  0  0  0  0  0  0  0  0  0  0
    4.6187    0.6345   -0.6435 C   0  0  0  0  0  0  0  0  0  0  0  0
    5.3391    1.5266   -1.5078 O   0  0  0  0  0  0  0  0  0  0  0  0
    6.7548    1.3840   -1.3129 C   0  0  0  0  0  0  0  0  0  0  0  0
    7.5134    2.3316   -2.2485 C   0  0  0  0  0  0  0  0  0  0  0  0
    7.2261    3.7360   -1.9498 N   0  0  0  0  0  0  0  0  0  0  0  0
    1.7620    1.4644    0.7794 H   0  0  0  0  0  0  0  0  0  0  0  0
    1.8813    2.4212   -1.2011 H   0  0  0  0  0  0  0  0  0  0  0  0
    3.4197    2.8208   -0.9073 H   0  0  0  0  0  0  0  0  0  0  0  0
    4.9160   -0.3981   -0.8662 H   0  0  0  0  0  0  0  0  0  0  0  0
    4.8762    0.8502    0.4008 H   0  0  0  0  0  0  0  0  0  0  0  0
    7.0443    0.3512   -1.5398 H   0  0  0  0  0  0  0  0  0  0  0  0
    7.0063    1.6010   -0.2683 H   0  0  0  0  0  0  0  0  0  0  0  0
    7.2279    2.1312   -3.2877 H   0  0  0  0  0  0  0  0  0  0  0  0
    8.5914    2.1601   -2.1506 H   0  0  0  0  0  0  0  0  0  0  0  0
    6.2173    3.8702   -2.0275 H   0  0  0  0  0  0  0  0  0  0  0  0
    7.6521    4.3257   -2.6622 H   0  0  0  0  0  0  0  0  0  0  0  0
  1  2  1  0  0  0  0
  1 12  1  0  0  0  0
  2  3  2  0  0  0  0
  2  4  1  0  0  0  0
  4  5  1  6  0  0  0
  4  6  1  0  0  0  0
  4  7  1  0  0  0  0
  6 13  1  0  0  0  0
  6 14  1  0  0  0  0
  7  8  1  0  0  0  0
  7 15  1  0  0  0  0
  7 16  1  0  0  0  0
  8  9  1  0  0  0  0
  9 10  1  0  0  0  0
  9 17  1  0  0  0  0
  9 18  1  0  0  0  0
 10 11  1  0  0  0  0
 10 19  1  0  0  0  0
 10 20  1  0  0  0  0
 11 21  1  0  0  0  0
 11 22  1  0  0  0  0
M  END
$$$$
