@<TRIPOS>MOLECULE
ligand.pdb
 22 21 0 0 0
SMALL
GASTEIGER

@<TRIPOS>ATOM
      1 O1          1.6012    0.5002    0.9478 O.3     1  <1>        -0.4795
      2 C1          2.3647   -0.1622    0.0393 C.2     1  <1>         0.3240
      3 O2          2.4474   -1.3790   -0.0097 O.2     1  <1>        -0.2492
      4 C2          3.1143    0.8076   -0.8752 C.3     1  <1>         0.1268
      5 H1          2.8549    0.5963   -1.9177 H       1  <1>         0.0597
      6 N1          2.6626    2.2101   -0.5733 N.3     1  <1>        -0.3166
      7 C3          4.6187    0.6345   -0.6435 C.3     1  <1>         0.0732
      8 O3          5.3391    1.5266   -1.5078 O.3     1  <1>        -0.3764
      9 C4          6.7548    1.3840   -1.3129 C.3     1  <1>         0.0600
     10 C5          7.5134    2.3316   -2.2485 C.3     1  <1>         0.0166
     11 N2          7.2261    3.7360   -1.9498 N.3     1  <1>        -0.3279
     12 H2          1.7620    1.4644    0.7794 H       1  <1>         0.2951
     13 H3          1.8813    2.4212   -1.2011 H       1  <1>         0.1190
     14 H4          3.4197    2.8208   -0.9073 H       1  <1>         0.1190
     15 H5          4.9160   -0.3981   -0.8662 H       1  <1>         0.0581
     16 H6          4.8762    0.8502    0.4008 H       1  <1>         0.0581
     17 H7          7.0443    0.3512   -1.5398 H       1  <1>         0.0572
     18 H8          7.0063    1.6010   -0.2683 H       1  <1>         0.0572
     19 H9          7.2279    2.1312   -3.2877 H       1  <1>         0.0444
     20 H10         8.5914    2.1601   -2.1506 H       1  <1>         0.0444
     21 H11         6.2173    3.8702   -2.0275 H       1  <1>         0.1183
     22 H12         7.6521    4.3257   -2.6622 H       1  <1>         0.1183
@<TRIPOS>BOND
     1     1     2    1
     2     1    12    1
     3     2     3    2
     4     2     4    1
     5     4     5    1
     6     4     6    1
     7     4     7    1
     8     6    13    1
     9     6    14    1
    10     7     8    1
    11     7    15    1
    12     7    16    1
    13     8     9    1
    14     9    10    1
    15     9    17    1
    16     9    18    1
    17    10    11    1
    18    10    19    1
    19    10    20    1
    20    11    21    1
    21    11    22    1
