1UUI_P12_B_1046
  1228              3D

 52 53  0  0  0  0  0  0  0  0999 V2000
    3.8792    0.0780   -2.4632 C   0  0  0  0  0  0  0  0  0  0  0  0
    3.4974    0.9543   -1.4543 C   0  0  0  0  0  0  0  0  0  0  0  0
    2.6039    0.5498   -0.4613 C   0  0  0  0  0  0  0  0  0  0  0  0
    2.1199   -0.7751   -0.4268 C   0  0  0  0  0  0  0  0  0  0  0  0
    2.5643   -1.6778   -1.4112 C   0  0  0  0  0  0  0  0  0  0  0  0
    3.4444   -1.2448   -2.4151 C   0  0  0  0  0  0  0  0  0  0  0  0
    2.3556   -3.0226   -1.1930 O   0  0  0  0  0  0  0  0  0  0  0  0
    2.0761   -3.7677   -2.3843 C   0  0  0  0  0  0  0  0  0  0  0  0
    1.4062   -5.0848   -2.0044 C   0  0  0  0  0  0  0  0  0  0  0  0
    2.4309   -6.1299   -1.5847 C   0  0  0  0  0  0  0  0  0  0  0  0
    1.7269   -7.2898   -0.9848 N   0  3  0  0  0  0  0  0  0  0  0  0
    1.2413   -7.8470   -1.7001 H   0  0  0  0  0  0  0  0  0  0  0  0
    1.0264   -6.9970   -0.2909 H   0  0  0  0  0  0  0  0  0  0  0  0
    2.3857   -7.9169   -0.5040 H   0  0  0  0  0  0  0  0  0  0  0  0
    1.0959   -1.1408    0.6252 C   0  0  0  0  0  0  0  0  0  0  0  0
   -0.2443   -1.7224    0.1610 N   0  3  0  0  0  0  0  0  0  0  0  0
   -0.0597   -2.6617   -0.2175 H   0  0  0  0  0  0  0  0  0  0  0  0
   -1.1357   -1.9287    1.3774 C   0  0  0  0  0  0  0  0  0  0  0  0
   -2.4631   -2.5240    0.9420 C   0  0  0  0  0  0  0  0  0  0  0  0
   -3.1062   -1.5864    0.0252 N   0  0  0  0  0  0  0  0  0  0  0  0
   -2.3327   -1.3952   -1.2146 C   0  0  0  0  0  0  0  0  0  0  0  0
   -0.9153   -0.8976   -0.9227 C   0  0  0  0  0  0  0  0  0  0  0  0
   -4.1247   -0.6979    0.3834 C   0  0  0  0  0  0  0  0  0  0  0  0
   -4.8881   -0.1148   -0.5140 N   0  0  0  0  0  0  0  0  0  0  0  0
   -4.6768   -0.9092    1.6547 N   0  0  0  0  0  0  0  0  0  0  0  0
    3.9344    2.2537   -1.4691 O   0  0  0  0  0  0  0  0  0  0  0  0
    5.3157    2.3214   -1.1066 C   0  0  0  0  0  0  0  0  0  0  0  0
    4.5757    0.3864   -3.2364 H   0  0  0  0  0  0  0  0  0  0  0  0
    2.2907    1.2687    0.2934 H   0  0  0  0  0  0  0  0  0  0  0  0
    3.8358   -1.9347   -3.1556 H   0  0  0  0  0  0  0  0  0  0  0  0
    1.4203   -3.2040   -3.0567 H   0  0  0  0  0  0  0  0  0  0  0  0
    3.0189   -3.9783   -2.9024 H   0  0  0  0  0  0  0  0  0  0  0  0
    0.6754   -4.9087   -1.2071 H   0  0  0  0  0  0  0  0  0  0  0  0
    0.8489   -5.4548   -2.8729 H   0  0  0  0  0  0  0  0  0  0  0  0
    3.1243   -5.7564   -0.8264 H   0  0  0  0  0  0  0  0  0  0  0  0
    2.9936   -6.5166   -2.4400 H   0  0  0  0  0  0  0  0  0  0  0  0
    1.5342   -1.8858    1.3019 H   0  0  0  0  0  0  0  0  0  0  0  0
    0.8431   -0.2582    1.2291 H   0  0  0  0  0  0  0  0  0  0  0  0
   -0.6087   -2.6105    2.0531 H   0  0  0  0  0  0  0  0  0  0  0  0
   -1.2771   -0.9531    1.8606 H   0  0  0  0  0  0  0  0  0  0  0  0
   -3.0720   -2.7316    1.8300 H   0  0  0  0  0  0  0  0  0  0  0  0
   -2.3124   -3.4841    0.4321 H   0  0  0  0  0  0  0  0  0  0  0  0
   -2.3138   -2.3525   -1.7493 H   0  0  0  0  0  0  0  0  0  0  0  0
   -2.8241   -0.6817   -1.8834 H   0  0  0  0  0  0  0  0  0  0  0  0
   -0.9266    0.1422   -0.5799 H   0  0  0  0  0  0  0  0  0  0  0  0
   -0.2846   -0.9729   -1.8188 H   0  0  0  0  0  0  0  0  0  0  0  0
   -5.3332    0.6994   -0.0602 H   0  0  0  0  0  0  0  0  0  0  0  0
   -5.5851   -0.4597    1.7961 H   0  0  0  0  0  0  0  0  0  0  0  0
   -4.0632   -0.6103    2.4109 H   0  0  0  0  0  0  0  0  0  0  0  0
    5.4947    3.2812   -0.6145 H   0  0  0  0  0  0  0  0  0  0  0  0
    5.9289    2.2830   -2.0127 H   0  0  0  0  0  0  0  0  0  0  0  0
    5.6204    1.5237   -0.4188 H   0  0  0  0  0  0  0  0  0  0  0  0
  2  1  2  0  0  0  0
  3  2  1  0  0  0  0
  4  3  2  0  0  0  0
  5  4  1  0  0  0  0
  6  5  2  0  0  0  0
  6  1  1  0  0  0  0
  7  5  1  0  0  0  0
  8  7  1  0  0  0  0
  9  8  1  0  0  0  0
 10  9  1  0  0  0  0
 11 10  1  0  0  0  0
 11 12  1  0  0  0  0
 11 13  1  0  0  0  0
 11 14  1  0  0  0  0
 15  4  1  0  0  0  0
 16 15  1  0  0  0  0
 16 17  1  0  0  0  0
 18 16  1  0  0  0  0
 19 18  1  0  0  0  0
 20 19  1  0  0  0  0
 21 20  1  0  0  0  0
 22 21  1  0  0  0  0
 22 16  1  0  0  0  0
 23 20  1  0  0  0  0
 24 23  2  0  0  0  0
 25 23  1  0  0  0  0
 26  2  1  0  0  0  0
 27 26  1  0  0  0  0
  1 28  1  0  0  0  0
  3 29  1  0  0  0  0
  6 30  1  0  0  0  0
  8 31  1  0  0  0  0
  8 32  1  0  0  0  0
  9 33  1  0  0  0  0
  9 34  1  0  0  0  0
 10 35  1  0  0  0  0
 10 36  1  0  0  0  0
 15 37  1  0  0  0  0
 15 38  1  0  0  0  0
 18 39  1  0  0  0  0
 18 40  1  0  0  0  0
 19 41  1  0  0  0  0
 19 42  1  0  0  0  0
 21 43  1  0  0  0  0
 21 44  1  0  0  0  0
 22 45  1  0  0  0  0
 22 46  1  0  0  0  0
 24 47  1  0  0  0  0
 25 48  1  0  0  0  0
 25 49  1  0  0  0  0
 27 50  1  0  0  0  0
 27 51  1  0  0  0  0
 27 52  1  0  0  0  0
M  CHG  2  11   1  16   1
M  END
>  <energy>
92.215542515522998

$$$$
