@<TRIPOS>MOLECULE
1UUI_P12_B_1046
 52 53 0 0 0
SMALL
GASTEIGER

@<TRIPOS>ATOM
      1 C           3.8792    0.0780   -2.4632 C.ar    1  UNL1       -0.0165
      2 C           3.4974    0.9543   -1.4543 C.ar    1  UNL1        0.1208
      3 C           2.6039    0.5498   -0.4613 C.ar    1  UNL1       -0.0082
      4 C           2.1199   -0.7751   -0.4268 C.ar    1  UNL1        0.0420
      5 C           2.5643   -1.6778   -1.4112 C.ar    1  UNL1        0.1289
      6 C           3.4444   -1.2448   -2.4151 C.ar    1  UNL1       -0.0160
      7 O           2.3556   -3.0226   -1.1930 O.3     1  UNL1       -0.4913
      8 C           2.0761   -3.7677   -2.3843 C.3     1  UNL1        0.0944
      9 C           1.4062   -5.0848   -2.0044 C.3     1  UNL1        0.0216
     10 C           2.4309   -6.1299   -1.5847 C.3     1  UNL1       -0.0323
     11 N           1.7269   -7.2898   -0.9848 N.4     1  UNL1        0.2186
     12 H           1.2413   -7.8470   -1.7001 H       1  UNL1        0.1994
     13 H           1.0264   -6.9970   -0.2909 H       1  UNL1        0.1994
     14 H           2.3857   -7.9169   -0.5040 H       1  UNL1        0.1994
     15 C           1.0959   -1.1408    0.6252 C.3     1  UNL1       -0.0021
     16 N          -0.2443   -1.7224    0.1610 N.4     1  UNL1        0.2428
     17 H          -0.0597   -2.6617   -0.2175 H       1  UNL1        0.2039
     18 C          -1.1357   -1.9287    1.3774 C.3     1  UNL1       -0.0018
     19 C          -2.4631   -2.5240    0.9420 C.3     1  UNL1        0.1005
     20 N          -3.1062   -1.5864    0.0252 N.pl3   1  UNL1       -0.2150
     21 C          -2.3327   -1.3952   -1.2146 C.3     1  UNL1        0.1005
     22 C          -0.9153   -0.8976   -0.9227 C.3     1  UNL1       -0.0018
     23 C          -4.1247   -0.6979    0.3834 C.cat   1  UNL1        0.3624
     24 N          -4.8881   -0.1148   -0.5140 N.2     1  UNL1       -0.1335
     25 N          -4.6768   -0.9092    1.6547 N.pl3   1  UNL1       -0.2518
     26 O           3.9344    2.2537   -1.4691 O.3     1  UNL1       -0.4951
     27 C           5.3157    2.3214   -1.1066 C.3     1  UNL1        0.0788
     28 H           4.5757    0.3864   -3.2364 H       1  UNL1        0.0655
     29 H           2.2907    1.2687    0.2934 H       1  UNL1        0.0660
     30 H           3.8358   -1.9347   -3.1556 H       1  UNL1        0.0655
     31 H           1.4203   -3.2040   -3.0567 H       1  UNL1        0.0698
     32 H           3.0189   -3.9783   -2.9024 H       1  UNL1        0.0698
     33 H           0.6754   -4.9087   -1.2071 H       1  UNL1        0.0350
     34 H           0.8489   -5.4548   -2.8729 H       1  UNL1        0.0350
     35 H           3.1243   -5.7564   -0.8264 H       1  UNL1        0.0814
     36 H           2.9936   -6.5166   -2.4400 H       1  UNL1        0.0814
     37 H           1.5342   -1.8858    1.3019 H       1  UNL1        0.0868
     38 H           0.8431   -0.2582    1.2291 H       1  UNL1        0.0868
     39 H          -0.6087   -2.6105    2.0531 H       1  UNL1        0.0844
     40 H          -1.2771   -0.9531    1.8606 H       1  UNL1        0.0844
     41 H          -3.0720   -2.7316    1.8300 H       1  UNL1        0.0688
     42 H          -2.3124   -3.4841    0.4321 H       1  UNL1        0.0688
     43 H          -2.3138   -2.3525   -1.7493 H       1  UNL1        0.0688
     44 H          -2.8241   -0.6817   -1.8834 H       1  UNL1        0.0688
     45 H          -0.9266    0.1422   -0.5799 H       1  UNL1        0.0844
     46 H          -0.2846   -0.9729   -1.8188 H       1  UNL1        0.0844
     47 H          -5.3332    0.6994   -0.0602 H       1  UNL1        0.3058
     48 H          -5.5851   -0.4597    1.7961 H       1  UNL1        0.2412
     49 H          -4.0632   -0.6103    2.4109 H       1  UNL1        0.2412
     50 H           5.4947    3.2812   -0.6145 H       1  UNL1        0.0660
     51 H           5.9289    2.2830   -2.0127 H       1  UNL1        0.0660
     52 H           5.6204    1.5237   -0.4188 H       1  UNL1        0.0660
@<TRIPOS>BOND
     1     2     1   ar
     2     3     2   ar
     3     4     3   ar
     4     5     4   ar
     5     6     5   ar
     6     6     1   ar
     7     7     5    1
     8     8     7    1
     9     9     8    1
    10    10     9    1
    11    11    10    1
    12    11    12    1
    13    11    13    1
    14    11    14    1
    15    15     4    1
    16    16    15    1
    17    16    17    1
    18    18    16    1
    19    19    18    1
    20    20    19    1
    21    21    20    1
    22    22    21    1
    23    22    16    1
    24    23    20    1
    25    24    23    2
    26    25    23    1
    27    26     2    1
    28    27    26    1
    29     1    28    1
    30     3    29    1
    31     6    30    1
    32     8    31    1
    33     8    32    1
    34     9    33    1
    35     9    34    1
    36    10    35    1
    37    10    36    1
    38    15    37    1
    39    15    38    1
    40    18    39    1
    41    18    40    1
    42    19    41    1
    43    19    42    1
    44    21    43    1
    45    21    44    1
    46    22    45    1
    47    22    46    1
    48    24    47    1
    49    25    48    1
    50    25    49    1
    51    27    50    1
    52    27    51    1
    53    27    52    1
