REMARK  8 active torsions:
REMARK  status: ('A' for Active; 'I' for Inactive)
REMARK    1  A    between atoms: O_26  and  C_2 
REMARK    2  A    between atoms: C_15  and  C_4 
REMARK    3  A    between atoms: O_7  and  C_5 
REMARK    4  A    between atoms: C_8  and  O_7 
REMARK    5  A    between atoms: C_9  and  C_8 
REMARK    6  A    between atoms: C_10  and  C_9 
REMARK    7  A    between atoms: N_11  and  C_10 
REMARK    8  A    between atoms: N_16  and  C_15 
REMARK       I    between atoms: C_23  and  N_20 
REMARK       I    between atoms: N_25  and  C_23 
ROOT
ATOM      1  C   UNL d   1       3.879   0.078  -2.463  0.00  0.00     0.039 A 
ATOM      2  C   UNL d   1       3.497   0.954  -1.454  0.00  0.00     0.069 A 
ATOM      3  C   UNL d   1       2.604   0.550  -0.461  0.00  0.00     0.048 A 
ATOM      4  C   UNL d   1       2.120  -0.775  -0.427  0.00  0.00     0.004 A 
ATOM      5  C   UNL d   1       2.564  -1.678  -1.411  0.00  0.00     0.076 A 
ATOM      6  C   UNL d   1       3.444  -1.245  -2.415  0.00  0.00     0.040 A 
ENDROOT
BRANCH   4   7
ATOM      7  C   UNL d   1       1.096  -1.141   0.625  0.00  0.00     0.276 C 
BRANCH   7   8
ATOM      8  N   UNL d   1      -0.244  -1.722   0.161  0.00  0.00    -0.064 N 
ATOM      9  H   UNL d   1      -0.060  -2.662  -0.217  0.00  0.00     0.280 HD
ATOM     10  C   UNL d   1      -1.136  -1.929   1.377  0.00  0.00     0.255 C 
ATOM     11  C   UNL d   1      -2.463  -2.524   0.942  0.00  0.00     0.153 C 
ATOM     12  N   UNL d   1      -3.106  -1.586   0.025  0.00  0.00    -0.354 N 
ATOM     13  C   UNL d   1      -2.333  -1.395  -1.215  0.00  0.00     0.153 C 
ATOM     14  C   UNL d   1      -4.125  -0.698   0.383  0.00  0.00     0.167 C 
ATOM     15  C   UNL d   1      -0.915  -0.898  -0.923  0.00  0.00     0.255 C 
ATOM     16  N   UNL d   1      -4.888  -0.115  -0.514  0.00  0.00    -0.274 NA
ATOM     17  N   UNL d   1      -4.677  -0.909   1.655  0.00  0.00    -0.273 NA
ATOM     18  H   UNL d   1      -5.333   0.699  -0.060  0.00  0.00     0.189 HD
ATOM     19  H   UNL d   1      -5.585  -0.460   1.796  0.00  0.00     0.127 HD
ATOM     20  H   UNL d   1      -4.063  -0.610   2.411  0.00  0.00     0.127 HD
ENDBRANCH   7   8
ENDBRANCH   4   7
BRANCH   5  21
ATOM     21  O   UNL d   1       2.356  -3.023  -1.193  0.00  0.00    -0.350 OA
BRANCH  21  22
ATOM     22  C   UNL d   1       2.076  -3.768  -2.384  0.00  0.00     0.177 C 
BRANCH  22  23
ATOM     23  C   UNL d   1       1.406  -5.085  -2.004  0.00  0.00     0.054 C 
BRANCH  23  24
ATOM     24  C   UNL d   1       2.431  -6.130  -1.585  0.00  0.00     0.231 C 
BRANCH  24  25
ATOM     25  N   UNL d   1       1.727  -7.290  -0.985  0.00  0.00    -0.079 N 
ATOM     26  H   UNL d   1       1.241  -7.847  -1.700  0.00  0.00     0.274 HD
ATOM     27  H   UNL d   1       1.026  -6.997  -0.291  0.00  0.00     0.274 HD
ATOM     28  H   UNL d   1       2.386  -7.917  -0.504  0.00  0.00     0.274 HD
ENDBRANCH  24  25
ENDBRANCH  23  24
ENDBRANCH  22  23
ENDBRANCH  21  22
ENDBRANCH   5  21
BRANCH   2  29
ATOM     29  O   UNL d   1       3.934   2.254  -1.469  0.00  0.00    -0.356 OA
ATOM     30  C   UNL d   1       5.316   2.321  -1.107  0.00  0.00     0.210 C 
ENDBRANCH   2  29
TORSDOF 8
