@<TRIPOS>MOLECULE
3D2X_D2X_A_85
 44 45 0 0 0
SMALL
GASTEIGER

@<TRIPOS>ATOM
      1 O           6.9032    0.9013   -3.7052 O.3     1  UNL1       -0.3023
      2 P           7.2089    1.2724   -2.0433 P.3     1  UNL1        0.4808
      3 O           5.9338    2.1244   -2.0463 O.2     1  UNL1       -0.2271
      4 O           6.7255   -0.2272   -1.6503 O.3     1  UNL1       -0.3023
      5 O           7.5147    1.6434   -0.3815 O.3     1  UNL1       -0.1862
      6 P           8.3861    3.1341   -0.2739 P.3     1  UNL1        0.4834
      7 O           9.4866    2.5575   -1.1978 O.2     1  UNL1       -0.2269
      8 O           9.2411    2.8545    1.0915 O.3     1  UNL1       -0.3022
      9 O           7.1564    3.7784    0.7584 O.3     1  UNL1       -0.2860
     10 C           6.4417    4.8152    0.0904 C.3     1  UNL1        0.0637
     11 C           5.3309    5.4127    0.9556 C.3     1  UNL1        0.0088
     12 C           4.6270    6.5253    0.2148 C.ar    1  UNL1        0.0636
     13 C           3.5257    6.4797   -0.6290 C.ar    1  UNL1        0.1915
     14 C           2.6829    5.2948   -0.9199 C.3     1  UNL1        0.0216
     15 N           3.3016    7.7074   -1.2614 N.ar    1  UNL1       -0.1903
     16 C           4.0841    8.6873   -0.8365 C.ar    1  UNL1        0.2109
     17 S           5.2115    8.1373    0.3223 S.2     1  UNL1       -0.0273
     18 C           2.3468    7.9531   -2.3697 C.3     1  UNL1        0.1829
     19 C           1.0778    8.5294   -1.8410 C.ar    1  UNL1        0.0964
     20 C          -0.0151    7.7646   -1.5133 C.ar    1  UNL1        0.0439
     21 N          -1.0815    8.2442   -0.8544 N.ar    1  UNL1       -0.2399
     22 C          -1.0797    9.5541   -0.5537 C.ar    1  UNL1        0.1297
     23 C          -2.1600   10.0595    0.3465 C.3     1  UNL1       -0.0045
     24 N          -0.1284   10.4144   -0.9594 N.ar    1  UNL1       -0.1980
     25 C           0.9070    9.8672   -1.5958 C.ar    1  UNL1        0.2248
     26 O           1.8429   10.7728   -1.9888 O.3     1  UNL1       -0.4920
     27 H           5.9351    0.8545   -3.7990 H       1  UNL1        0.2220
     28 H           5.8028   -0.2312   -1.3397 H       1  UNL1        0.2220
     29 H          10.1194    2.5063    0.8427 H       1  UNL1        0.2220
     30 H           6.0128    4.4067   -0.8307 H       1  UNL1        0.0569
     31 H           7.1603    5.5907   -0.1975 H       1  UNL1        0.0569
     32 H           5.7517    5.7755    1.9006 H       1  UNL1        0.0343
     33 H           4.6191    4.6269    1.2339 H       1  UNL1        0.0343
     34 H           2.5449    4.6956   -0.0131 H       1  UNL1        0.0336
     35 H           3.1544    4.6674   -1.6797 H       1  UNL1        0.0336
     36 H           1.6829    5.5558   -1.2606 H       1  UNL1        0.0336
     37 H           4.0479    9.7164   -1.1794 H       1  UNL1        0.1462
     38 H           2.1699    7.0210   -2.9187 H       1  UNL1        0.1087
     39 H           2.8174    8.6263   -3.0966 H       1  UNL1        0.1087
     40 H          -0.0852    6.7045   -1.7423 H       1  UNL1        0.0837
     41 H          -2.4423    9.2832    1.0672 H       1  UNL1        0.0308
     42 H          -3.0394   10.3400   -0.2363 H       1  UNL1        0.0308
     43 H          -1.8099   10.9281    0.9133 H       1  UNL1        0.0308
     44 H           1.3563   11.6050   -1.8209 H       1  UNL1        0.2937
@<TRIPOS>BOND
     1     1     2    1
     2     1    27    1
     3     2     3    2
     4     2     4    1
     5     2     5    1
     6     4    28    1
     7     6     8    1
     8     6     9    1
     9     6     7    2
    10     6     5    1
    11     8    29    1
    12     9    10    1
    13    10    11    1
    14    10    30    1
    15    10    31    1
    16    11    12    1
    17    11    32    1
    18    11    33    1
    19    12    13   ar
    20    12    17   ar
    21    13    14    1
    22    13    15   ar
    23    14    34    1
    24    14    35    1
    25    14    36    1
    26    15    16   ar
    27    15    18    1
    28    16    17   ar
    29    16    37    1
    30    18    19    1
    31    18    38    1
    32    18    39    1
    33    19    20   ar
    34    19    25   ar
    35    20    21   ar
    36    20    40    1
    37    21    22   ar
    38    22    23    1
    39    22    24   ar
    40    23    41    1
    41    23    42    1
    42    23    43    1
    43    24    25   ar
    44    25    26    1
    45    26    44    1
