@<TRIPOS>MOLECULE
2B57_6AP_A_91
 11 12 0 0 0
SMALL
GASTEIGER
****
Coordinates from PDB:2B57:A:91 Model:1 without hydrogens
@<TRIPOS>ATOM
      1 N         -10.7420  -14.3920    6.0490 N.ar    1  UNL1       -0.2031
      2 C         -10.8930  -13.3930    5.1820 C.ar    1  UNL1        0.2005
      3 N         -11.4040  -12.3340    5.8060 N.ar    1  UNL1       -0.2179
      4 C         -11.5800  -12.6600    7.0830 C.ar    1  UNL1        0.1535
      5 C         -11.1580  -13.9740    7.2410 C.ar    1  UNL1        0.1874
      6 N         -11.2150  -14.5540    8.4490 N.ar    1  UNL1       -0.1903
      7 C         -11.6740  -13.8770    9.5130 C.ar    1  UNL1        0.2593
      8 N         -11.7090  -14.4680   10.7040 N.pl3   1  UNL1       -0.0860
      9 N         -12.0880  -12.6060    9.3870 N.ar    1  UNL1       -0.1912
     10 C         -12.0540  -11.9800    8.2000 C.ar    1  UNL1        0.1931
     11 N         -12.4770  -10.7240    8.0920 N.pl3   1  UNL1       -0.1054
@<TRIPOS>BOND
     1     1     2   ar
     2     1     5   ar
     3     2     3   ar
     4     3     4   ar
     5     4     5   ar
     6     4    10   ar
     7     5     6   ar
     8     6     7   ar
     9     7     8    1
    10     7     9   ar
    11     9    10   ar
    12    10    11    1
