2B57_6AP_A_91
 OpenBabel10091713573D
Coordinates from PDB:2B57:A:91 Model:1 without hydrogens
 17 18  0  0  0  0  0  0  0  0999 V2000
  -10.7420  -14.3920    6.0490 N   0  0  0  0  0  0  0  0  0  0  0  0
  -10.8930  -13.3930    5.1820 C   0  0  0  0  0  0  0  0  0  0  0  0
  -11.4040  -12.3340    5.8060 N   0  0  0  0  0  0  0  0  0  0  0  0
  -11.5800  -12.6600    7.0830 C   0  0  0  0  0  0  0  0  0  0  0  0
  -11.1580  -13.9740    7.2410 C   0  0  0  0  0  0  0  0  0  0  0  0
  -11.2150  -14.5540    8.4490 N   0  0  0  0  0  0  0  0  0  0  0  0
  -11.6740  -13.8770    9.5130 C   0  0  0  0  0  0  0  0  0  0  0  0
  -11.7090  -14.4680   10.7040 N   0  0  0  0  0  0  0  0  0  0  0  0
  -12.0880  -12.6060    9.3870 N   0  0  0  0  0  0  0  0  0  0  0  0
  -12.0540  -11.9800    8.2000 C   0  0  0  0  0  0  0  0  0  0  0  0
  -12.4770  -10.7240    8.0920 N   0  0  0  0  0  0  0  0  0  0  0  0
  -10.3842  -15.2858    5.8432 H   0  0  0  0  0  0  0  0  0  0  0  0
  -10.6509  -13.4334    4.1796 H   0  0  0  0  0  0  0  0  0  0  0  0
  -11.4062  -15.3998   10.8002 H   0  0  0  0  0  0  0  0  0  0  0  0
  -12.0377  -13.9736   11.4894 H   0  0  0  0  0  0  0  0  0  0  0  0
  -12.4502  -10.2689    7.2194 H   0  0  0  0  0  0  0  0  0  0  0  0
  -12.8170  -10.2492    8.8846 H   0  0  0  0  0  0  0  0  0  0  0  0
  1  2  1  0  0  0  0
  1  5  1  0  0  0  0
  1 12  1  0  0  0  0
  2  3  2  0  0  0  0
  2 13  1  0  0  0  0
  3  4  1  0  0  0  0
  4  5  2  0  0  0  0
  4 10  1  0  0  0  0
  5  6  1  0  0  0  0
  6  7  2  0  0  0  0
  7  8  1  0  0  0  0
  7  9  1  0  0  0  0
  8 14  1  0  0  0  0
  8 15  1  0  0  0  0
  9 10  2  0  0  0  0
 10 11  1  0  0  0  0
 11 16  1  0  0  0  0
 11 17  1  0  0  0  0
M  END
$$$$
