ligands/ligand.pdb
 OpenBabel10091713573D

 31 33  0  0  1  0  0  0  0  0999 V2000
    9.5540    1.8700   -2.7680 C   0  0  1  0  0  0  0  0  0  0  0  0
    8.2040    1.9250   -3.3360 O   0  0  0  0  0  0  0  0  0  0  0  0
    7.2300    2.7260   -2.5970 C   0  0  2  0  0  0  0  0  0  0  0  0
    7.6860    4.1090   -2.5080 O   0  0  0  0  0  0  0  0  0  0  0  0
    7.0590    2.1140   -1.1780 C   0  0  2  0  0  0  0  0  0  0  0  0
    6.0800    2.8520   -0.3540 N   0  0  0  0  0  0  0  0  0  0  0  0
    8.4300    2.0280   -0.4550 C   0  0  0  0  0  0  0  0  0  0  0  0
    9.4950    1.3170   -1.3180 C   0  0  0  0  0  0  0  0  0  0  0  0
   10.5180    1.0320   -3.6330 C   0  0  0  0  0  0  0  0  0  0  0  0
   10.3310    1.1780   -5.0860 N   0  0  0  0  0  0  0  0  0  0  0  0
    8.0730    6.2810   -3.5710 C   0  0  1  0  0  0  0  0  0  0  0  0
    7.4150    7.4540   -4.3420 C   0  0  0  0  0  0  0  0  0  0  0  0
    6.1640    7.9720   -3.5800 C   0  0  1  0  0  0  0  0  0  0  0  0
    5.5840    9.1280   -4.2930 N   0  0  0  0  0  0  0  0  0  0  0  0
    5.1260    6.8250   -3.4030 C   0  0  1  0  0  0  0  0  0  0  0  0
    5.7450    5.5700   -2.7430 C   0  0  1  0  0  0  0  0  0  0  0  0
    4.7880    4.5240   -2.8290 O   0  0  0  0  0  0  0  0  0  0  0  0
    7.0790    5.0950   -3.3840 C   0  0  2  0  0  0  0  0  0  0  0  0
    9.3030    5.8300   -4.2490 N   0  0  0  0  0  0  0  0  0  0  0  0
    1.8640    5.1390   -1.9320 C   0  0  0  0  0  0  0  0  0  0  0  0
    0.9080    5.9630   -1.0250 C   0  0  2  0  0  0  0  0  0  0  0  0
   -0.3660    5.9970   -1.6650 O   0  0  0  0  0  0  0  0  0  0  0  0
    1.4970    7.4170   -0.8560 C   0  0  1  0  0  0  0  0  0  0  0  0
    1.7360    8.0660   -2.2660 C   0  0  2  0  0  0  0  0  0  0  0  0
    2.6940    7.1800   -3.1020 C   0  0  1  0  0  0  0  0  0  0  0  0
    4.0310    7.2440   -2.5460 O   0  0  0  0  0  0  0  0  0  0  0  0
    2.1730    5.8180   -3.1820 O   0  0  0  0  0  0  0  0  0  0  0  0
    2.2860    9.3750   -2.1580 O   0  0  0  0  0  0  0  0  0  0  0  0
    0.7510    8.3100    0.0960 N   0  0  0  0  0  0  0  0  0  0  0  0
   -0.5760    8.8280   -0.2940 C   0  0  0  0  0  0  0  0  0  0  0  0
    0.7340    5.1990    0.3070 C   0  0  0  0  0  0  0  0  0  0  0  0
  1  2  1  0  0  0  0
  1  8  1  0  0  0  0
  1  9  1  6  0  0  0
  2  3  1  0  0  0  0
  3  4  1  1  0  0  0
  3  5  1  0  0  0  0
  5  6  1  1  0  0  0
  5  7  1  0  0  0  0
  7  8  1  0  0  0  0
  9 10  1  0  0  0  0
 11 12  1  0  0  0  0
 11 18  1  0  0  0  0
 11 19  1  6  0  0  0
 12 13  1  0  0  0  0
 13 14  1  6  0  0  0
 13 15  1  0  0  0  0
 15 16  1  0  0  0  0
 15 26  1  1  0  0  0
 16 17  1  6  0  0  0
 16 18  1  0  0  0  0
 18  4  1  1  0  0  0
 20 21  1  0  0  0  0
 20 27  1  0  0  0  0
 21 22  1  0  0  0  0
 21 31  1  1  0  0  0
 23 21  1  0  0  0  0
 23 24  1  0  0  0  0
 23 29  1  1  0  0  0
 24 25  1  0  0  0  0
 24 28  1  1  0  0  0
 25 26  1  1  0  0  0
 25 27  1  0  0  0  0
 29 30  1  0  0  0  0
M  END
>  <HEADER>
Generated with yapdb_parser, version: unknown (https://github.com/m4rx9/rna-pdb-tools) Wed Jan 27 17:52:03 2016

$$$$
