REMARK  6 active torsions:
REMARK  status: ('A' for Active; 'I' for Inactive)
REMARK    1  A    between atoms: C_1  and  C_9 
REMARK    2  A    between atoms: C_3  and  O_4 
REMARK    3  A    between atoms: C_18  and  O_4 
REMARK    4  A    between atoms: C_15  and  O_26 
REMARK    5  A    between atoms: C_23  and  N_29 
REMARK    6  A    between atoms: C_25  and  O_26 
ROOT
ATOM      1  C   UNL d   1       8.073   6.281  -3.571  0.00  0.00     0.334 C 
ATOM      2  C   UNL d   1       7.415   7.454  -4.342  0.00  0.00     0.083 C 
ATOM      3  C   UNL d   1       6.164   7.972  -3.580  0.00  0.00     0.334 C 
ATOM      4  N   UNL d   1       5.584   9.128  -4.293  0.00  0.00     0.619 N 
ATOM      5  C   UNL d   1       5.126   6.825  -3.403  0.00  0.00     0.188 C 
ATOM      6  C   UNL d   1       5.745   5.570  -2.743  0.00  0.00     0.210 C 
ATOM      7  O   UNL d   1       4.788   4.524  -2.829  0.00  0.00    -0.218 OA
ATOM      8  C   UNL d   1       7.079   5.095  -3.384  0.00  0.00     0.188 C 
ATOM      9  N   UNL d   1       9.303   5.830  -4.249  0.00  0.00     0.619 N 
ENDROOT
BRANCH   5  10
ATOM     10  O   UNL d   1       4.031   7.244  -2.546  0.00  0.00    -0.327 OA
BRANCH  10  11
ATOM     11  C   UNL d   1       2.694   7.180  -3.102  0.00  0.00     0.269 C 
ATOM     12  C   UNL d   1       1.736   8.066  -2.266  0.00  0.00     0.232 C 
ATOM     13  C   UNL d   1       1.497   7.417  -0.856  0.00  0.00     0.164 C 
ATOM     14  O   UNL d   1       2.286   9.375  -2.158  0.00  0.00    -0.216 OA
ATOM     15  C   UNL d   1       0.908   5.963  -1.025  0.00  0.00     0.177 C 
ATOM     16  C   UNL d   1       1.864   5.139  -1.932  0.00  0.00     0.177 C 
ATOM     17  O   UNL d   1      -0.366   5.997  -1.665  0.00  0.00    -0.221 OA
ATOM     18  C   UNL d   1       0.734   5.199   0.307  0.00  0.00     0.038 C 
ATOM     19  O   UNL d   1       2.173   5.818  -3.182  0.00  0.00    -0.326 OA
BRANCH  13  20
ATOM     20  N   UNL d   1       0.751   8.310   0.096  0.00  0.00    -0.290 NA
ATOM     21  C   UNL d   1      -0.576   8.828  -0.294  0.00  0.00     0.146 C 
ENDBRANCH  13  20
ENDBRANCH  10  11
ENDBRANCH   5  10
BRANCH   8  22
ATOM     22  O   UNL d   1       7.686   4.109  -2.508  0.00  0.00    -0.327 OA
BRANCH  22  23
ATOM     23  C   UNL d   1       7.230   2.726  -2.597  0.00  0.00     0.274 C 
ATOM     24  O   UNL d   1       8.204   1.925  -3.336  0.00  0.00    -0.330 OA
ATOM     25  C   UNL d   1       9.554   1.870  -2.768  0.00  0.00     0.157 C 
ATOM     26  C   UNL d   1       9.495   1.317  -1.318  0.00  0.00     0.034 C 
ATOM     27  C   UNL d   1       8.430   2.028  -0.455  0.00  0.00     0.047 C 
ATOM     28  C   UNL d   1       7.059   2.114  -1.178  0.00  0.00     0.357 C 
ATOM     29  N   UNL d   1       6.080   2.852  -0.354  0.00  0.00     0.621 N 
BRANCH  25  30
ATOM     30  C   UNL d   1      10.518   1.032  -3.633  0.00  0.00     0.368 C 
ATOM     31  N   UNL d   1      10.331   1.178  -5.086  0.00  0.00     0.621 N 
ENDBRANCH  25  30
ENDBRANCH  22  23
ENDBRANCH   8  22
TORSDOF 6
