@<TRIPOS>MOLECULE
ligands/ligand.pdb
 31 33 0 0 0
SMALL
GASTEIGER

@<TRIPOS>ATOM
      1 C           9.5540    1.8700   -2.7680 C.3     1  UNL1        0.1368
      2 O           8.2040    1.9250   -3.3360 O.3     1  UNL1       -0.3304
      3 C           7.2300    2.7260   -2.5970 C.3     1  UNL1        0.2533
      4 O           7.6860    4.1090   -2.5080 O.3     1  UNL1       -0.3277
      5 C           7.0590    2.1140   -1.1780 C.3     1  UNL1        0.1480
      6 N           6.0800    2.8520   -0.3540 N.3     1  UNL1       -0.1276
      7 C           8.4300    2.0280   -0.4550 C.3     1  UNL1        0.0267
      8 C           9.4950    1.3170   -1.3180 C.3     1  UNL1        0.0329
      9 C          10.5180    1.0320   -3.6330 C.3     1  UNL1        0.1388
     10 N          10.3310    1.1780   -5.0860 N.3     1  UNL1       -0.1287
     11 C           8.0730    6.2810   -3.5710 C.3     1  UNL1        0.1231
     12 C           7.4150    7.4540   -4.3420 C.3     1  UNL1        0.0432
     13 C           6.1640    7.9720   -3.5800 C.3     1  UNL1        0.1231
     14 N           5.5840    9.1280   -4.2930 N.3     1  UNL1       -0.1302
     15 C           5.1260    6.8250   -3.4030 C.3     1  UNL1        0.1680
     16 C           5.7450    5.5700   -2.7430 C.3     1  UNL1        0.2088
     17 O           4.7880    4.5240   -2.8290 O.3     1  UNL1       -0.2178
     18 C           7.0790    5.0950   -3.3840 C.3     1  UNL1        0.1680
     19 N           9.3030    5.8300   -4.2490 N.3     1  UNL1       -0.1302
     20 C           1.8640    5.1390   -1.9320 C.3     1  UNL1        0.1765
     21 C           0.9080    5.9630   -1.0250 C.3     1  UNL1        0.1710
     22 O          -0.3660    5.9970   -1.6650 O.3     1  UNL1       -0.2215
     23 C           1.4970    7.4170   -0.8560 C.3     1  UNL1        0.1384
     24 C           1.7360    8.0660   -2.2660 C.3     1  UNL1        0.2262
     25 C           2.6940    7.1800   -3.1020 C.3     1  UNL1        0.2683
     26 O           4.0310    7.2440   -2.5460 O.3     1  UNL1       -0.3269
     27 O           2.1730    5.8180   -3.1820 O.3     1  UNL1       -0.3259
     28 O           2.2860    9.3750   -2.1580 O.3     1  UNL1       -0.2161
     29 N           0.7510    8.3100    0.0960 N.3     1  UNL1       -0.2126
     30 C          -0.5760    8.8280   -0.2940 C.3     1  UNL1        0.1076
     31 C           0.7340    5.1990    0.3070 C.3     1  UNL1        0.0371
@<TRIPOS>BOND
     1     1     2    1
     2     1     8    1
     3     1     9    1
     4     2     3    1
     5     3     4    1
     6     3     5    1
     7     5     6    1
     8     5     7    1
     9     7     8    1
    10     9    10    1
    11    11    12    1
    12    11    18    1
    13    11    19    1
    14    12    13    1
    15    13    14    1
    16    13    15    1
    17    15    16    1
    18    15    26    1
    19    16    17    1
    20    16    18    1
    21    18     4    1
    22    20    21    1
    23    20    27    1
    24    21    22    1
    25    21    31    1
    26    23    21    1
    27    23    24    1
    28    23    29    1
    29    24    25    1
    30    24    28    1
    31    25    26    1
    32    25    27    1
    33    29    30    1
