REMARK  7 active torsions:
REMARK  status: ('A' for Active; 'I' for Inactive)
REMARK    1  A    between atoms: N_1  and  CA_2 
REMARK    2  A    between atoms: CA_2  and  C_3 
REMARK    3  A    between atoms: CA_2  and  CB_5 
REMARK    4  A    between atoms: C_3  and  OXT_12 
REMARK    5  A    between atoms: CB_5  and  CG_6 
REMARK    6  A    between atoms: CG_6  and  CD_7 
REMARK    7  A    between atoms: CD_7  and  NE_8 
REMARK       I    between atoms: NE_8  and  CZ_9 
REMARK       I    between atoms: CZ_9  and  NH1_10 
ROOT
ATOM      1  CG  ARG d   1       6.292   4.481 -11.246  0.00  0.00     0.023 C 
ENDROOT
BRANCH   1   2
ATOM      2  CB  ARG d   1       7.671   4.357 -10.589  0.00  0.00     0.048 C 
BRANCH   2   3
ATOM      3  CA  ARG d   1       8.236   5.756 -10.306  0.00  0.00     0.314 C 
BRANCH   3   4
ATOM      4  N   ARG d   1       9.697   5.648 -10.016  0.00  0.00     0.093 N 
ATOM      5  H1  ARG d   1      10.076   6.576  -9.827  0.00  0.00     0.314 HD
ATOM      6  H2  ARG d   1      10.175   5.243 -10.821  0.00  0.00     0.314 HD
ENDBRANCH   3   4
BRANCH   3   7
ATOM      7  C   ARG d   1       7.511   6.378  -9.098  0.00  0.00     0.173 C 
ATOM      8  O   ARG d   1       8.053   6.321  -8.007  0.00  0.00    -0.648 OA
BRANCH   7   9
ATOM      9  OXT ARG d   1       6.425   6.901  -9.284  0.00  0.00    -0.775 OA
ATOM     10  HXT ARG d   1       6.054   6.917 -10.144  0.00  0.00     0.167 HD
ENDBRANCH   7   9
ENDBRANCH   3   7
ENDBRANCH   2   3
ENDBRANCH   1   2
BRANCH   1  11
ATOM     11  CD  ARG d   1       5.205   4.150 -10.222  0.00  0.00     0.138 C 
BRANCH  11  12
ATOM     12  NE  ARG d   1       3.900   4.708 -10.699  0.00  0.00    -0.227 N 
ATOM     13  CZ  ARG d   1       3.238   5.561  -9.981  0.00  0.00     0.665 C 
ATOM     14  NH1 ARG d   1       3.854   6.452  -9.280  0.00  0.00    -0.235 N 
ATOM     15  NH2 ARG d   1       1.950   5.526  -9.984  0.00  0.00    -0.235 N 
ATOM     16 1HH1 ARG d   1       4.838   6.481  -9.276  0.00  0.00     0.174 HD
ATOM     17 2HH1 ARG d   1       3.340   7.103  -8.749  0.00  0.00     0.174 HD
ATOM     18 1HH2 ARG d   1       1.477   4.847 -10.518  0.00  0.00     0.174 HD
ATOM     19 2HH2 ARG d   1       1.439   6.178  -9.452  0.00  0.00     0.174 HD
ATOM     20  HE  ARG d   1       3.540   4.423 -11.570  0.00  0.00     0.177 HD
ENDBRANCH  11  12
ENDBRANCH   1  11
TORSDOF 7
