
  Mrv1688 03221815473D          
Coordinates from PDB:1ARJ:N:1 Model:1 without hydrogens
 27 26  0  0  1  0            999 V2000
    9.6970    5.6480  -10.0160 N   0  0  2  0  0  0  0  0  0  0  0  0
    8.2360    5.7560  -10.3060 C   0  0  2  0  0  0  0  0  0  0  0  0
    7.5110    6.3780   -9.0980 C   0  0  0  0  0  0  0  0  0  0  0  0
    8.0530    6.3210   -8.0070 O   0  0  0  0  0  0  0  0  0  0  0  0
    7.6710    4.3570  -10.5890 C   0  0  2  0  0  0  0  0  0  0  0  0
    6.2920    4.4810  -11.2460 C   0  0  2  0  0  0  0  0  0  0  0  0
    5.2050    4.1500  -10.2220 C   0  0  2  0  0  0  0  0  0  0  0  0
    3.9000    4.7080  -10.6990 N   0  0  0  0  0  0  0  0  0  0  0  0
    3.2380    5.5610   -9.9810 C   0  0  0  0  0  0  0  0  0  0  0  0
    3.8540    6.4520   -9.2800 N   0  0  0  0  0  0  0  0  0  0  0  0
    1.9500    5.5260   -9.9840 N   0  3  0  0  0  0  0  0  0  0  0  0
    6.4250    6.9010   -9.2840 O   0  0  0  0  0  0  0  0  0  0  0  0
   10.0757    6.5761   -9.8274 H   0  0  0  0  0  0  0  0  0  0  0  0
   10.1745    5.2431  -10.8213 H   0  0  0  0  0  0  0  0  0  0  0  0
    8.0857    6.3806  -11.1617 H   0  0  0  0  0  0  0  0  0  0  0  0
    7.5799    3.8174   -9.6695 H   0  0  0  0  0  0  0  0  0  0  0  0
    8.3322    3.8341  -11.2480 H   0  0  0  0  0  0  0  0  0  0  0  0
    6.2265    3.7992  -12.0681 H   0  0  0  0  0  0  0  0  0  0  0  0
    6.1550    5.4817  -11.5992 H   0  0  0  0  0  0  0  0  0  0  0  0
    5.4574    4.5850   -9.2775 H   0  0  0  0  0  0  0  0  0  0  0  0
    5.1251    3.0889  -10.1097 H   0  0  0  0  0  0  0  0  0  0  0  0
    3.5396    4.4233  -11.5698 H   0  0  0  0  0  0  0  0  0  0  0  0
    4.8381    6.4812   -9.2758 H   0  0  0  0  0  0  0  0  0  0  0  0
    3.3400    7.1027   -8.7493 H   0  0  0  0  0  0  0  0  0  0  0  0
    1.4773    4.8473  -10.5179 H   0  0  0  0  0  0  0  0  0  0  0  0
    1.4386    6.1780   -9.4524 H   0  0  0  0  0  0  0  0  0  0  0  0
    6.0538    6.9169  -10.1442 H   0  0  0  0  0  0  0  0  0  0  0  0
  1  2  1  0  0  0  0
  1 13  1  0  0  0  0
  1 14  1  0  0  0  0
  2  3  1  0  0  0  0
  2  5  1  0  0  0  0
  2 15  1  6  0  0  0
  3  4  2  0  0  0  0
  3 12  1  0  0  0  0
  5  6  1  0  0  0  0
  5 16  1  0  0  0  0
  5 17  1  0  0  0  0
  6  7  1  0  0  0  0
  6 18  1  0  0  0  0
  6 19  1  0  0  0  0
  7  8  1  0  0  0  0
  7 20  1  0  0  0  0
  7 21  1  0  0  0  0
  8  9  1  0  0  0  0
  8 22  1  0  0  0  0
  9 10  1  0  0  0  0
  9 11  2  0  0  0  0
 10 23  1  0  0  0  0
 10 24  1  0  0  0  0
 11 25  1  0  0  0  0
 11 26  1  0  0  0  0
 12 27  1  0  0  0  0
M  CHG  1  11   1
M  END
$$$$
