@<TRIPOS>MOLECULE
*****
 27 26 0 0 0
SMALL
GASTEIGER
****
Coordinates from PDB:1ARJ:N:1 Model:1 without hydrogens
@<TRIPOS>ATOM
      1 N           9.6970    5.6480  -10.0160 N.3     1  ARG1       -0.3184
      2 CA          8.2360    5.7560  -10.3060 C.3     1  ARG1        0.1033
      3 C           7.5110    6.3780   -9.0980 C.2     1  ARG1        0.3217
      4 O           8.0530    6.3210   -8.0070 O.2     1  ARG1       -0.2493
      5 CB          7.6710    4.3570  -10.5890 C.3     1  ARG1       -0.0245
      6 CG          6.2920    4.4810  -11.2460 C.3     1  ARG1       -0.0203
      7 CD          5.2050    4.1500  -10.2220 C.3     1  ARG1        0.0646
      8 NE          3.9000    4.7080  -10.6990 N.pl3   1  ARG1       -0.2787
      9 CZ          3.2380    5.5610   -9.9810 C.cat   1  ARG1        0.3410
     10 NH1         3.8540    6.4520   -9.2800 N.pl3   1  ARG1       -0.2919
     11 NH2         1.9500    5.5260   -9.9840 N.pl3   1  ARG1       -0.2919
     12 OXT         6.4250    6.9010   -9.2840 O.3     1  ARG1       -0.4795
     13 H1         10.0757    6.5761   -9.8274 H       1  ARG1        0.1190
     14 H2         10.1745    5.2431  -10.8213 H       1  ARG1        0.1190
     15 HA          8.0857    6.3806  -11.1617 H       1  ARG1        0.0574
     16 HB1         7.5799    3.8174   -9.6695 H       1  ARG1        0.0286
     17 HB2         8.3322    3.8341  -11.2480 H       1  ARG1        0.0286
     18 HG1         6.2265    3.7992  -12.0681 H       1  ARG1        0.0296
     19 HG2         6.1550    5.4817  -11.5992 H       1  ARG1        0.0296
     20 HD1         5.4574    4.5850   -9.2775 H       1  ARG1        0.0655
     21 HD2         5.1251    3.0889  -10.1097 H       1  ARG1        0.0655
     22 HE          3.5396    4.4233  -11.5698 H       1  ARG1        0.2578
     23 HH11        4.8381    6.4812   -9.2758 H       1  ARG1        0.2545
     24 HH12        3.3400    7.1027   -8.7493 H       1  ARG1        0.2545
     25 HH21        1.4773    4.8473  -10.5179 H       1  ARG1        0.2545
     26 HH22        1.4386    6.1780   -9.4524 H       1  ARG1        0.2545
     27 HXT         6.0538    6.9169  -10.1442 H       1  ARG1        0.2951
@<TRIPOS>BOND
     1     1     2    1
     2     1    13    1
     3     1    14    1
     4     2     3    1
     5     2     5    1
     6     2    15    1
     7     3     4    2
     8     3    12    1
     9     5     6    1
    10     5    16    1
    11     5    17    1
    12     6     7    1
    13     6    18    1
    14     6    19    1
    15     7     8    1
    16     7    20    1
    17     7    21    1
    18     8     9    1
    19     8    22    1
    20     9    10    1
    21     9    11    2
    22    10    23    1
    23    10    24    1
    24    11    25    1
    25    11    26    1
    26    12    27    1
