REMARK  6 active torsions:
REMARK  status: ('A' for Active; 'I' for Inactive)
REMARK    1  A    between atoms: CA_2  and  N_1 
REMARK    2  A    between atoms: C_3  and  CA_2 
REMARK    3  A    between atoms: CB_5  and  CA_2 
REMARK    4  A    between atoms: CG_6  and  CB_5 
REMARK    5  A    between atoms: CD_7  and  CG_6 
REMARK    6  A    between atoms: NE_8  and  CD_7 
REMARK       I    between atoms: CZ_9  and  NE_8 
REMARK       I    between atoms: NH2_10  and  CZ_9 
ROOT
ATOM      1  CD  ARG d   1      -2.590  -2.363  -1.424  0.00  0.00     0.138 C 
ENDROOT
BRANCH   1   2
ATOM      2  CG  ARG d   1      -2.341  -3.232  -0.193  0.00  0.00     0.023 C 
BRANCH   2   3
ATOM      3  CB  ARG d   1      -0.967  -2.902   0.397  0.00  0.00     0.043 C 
BRANCH   3   4
ATOM      4  CA  ARG d   1      -0.682  -3.828   1.587  0.00  0.00     0.260 C 
BRANCH   4   5
ATOM      5  N   ARG d   1       0.044  -3.063   2.645  0.00  0.00    -0.068 N 
ATOM      6  H2  ARG d   1      -0.495  -2.206   2.884  0.00  0.00     0.275 HD
ATOM      7  H3  ARG d   1       0.147  -3.655   3.493  0.00  0.00     0.275 HD
ATOM      8  H1  ARG d   1       0.987  -2.794   2.296  0.00  0.00     0.275 HD
ENDBRANCH   4   5
BRANCH   4   9
ATOM      9  C   ARG d   1       0.174  -5.021   1.129  0.00  0.00     0.227 C 
ATOM     10  O   ARG d   1       0.012  -5.515   0.029  0.00  0.00    -0.287 OA
ENDBRANCH   4   9
ENDBRANCH   3   4
ENDBRANCH   2   3
ENDBRANCH   1   2
BRANCH   1  11
ATOM     11  NE  ARG d   1      -4.054  -2.296  -1.685  0.00  0.00    -0.227 N 
ATOM     12  HE  ARG d   1      -4.649  -1.875  -1.030  0.00  0.00     0.177 HD
ATOM     13  CZ  ARG d   1      -4.549  -2.811  -2.777  0.00  0.00     0.665 C 
ATOM     14  NH1 ARG d   1      -5.391  -3.809  -2.701  0.00  0.00    -0.235 N 
ATOM     15  NH2 ARG d   1      -4.208  -2.324  -3.942  0.00  0.00    -0.235 N 
ATOM     16 1HH1 ARG d   1      -5.653  -4.174  -1.807  0.00  0.00     0.174 HD
ATOM     17 2HH1 ARG d   1      -5.775  -4.206  -3.533  0.00  0.00     0.174 HD
ATOM     18 1HH2 ARG d   1      -3.568  -1.558  -3.994  0.00  0.00     0.174 HD
ATOM     19 2HH2 ARG d   1      -4.593  -2.710  -4.779  0.00  0.00     0.174 HD
ENDBRANCH   1  11
TORSDOF 6
