ligand.pdb
  Mrv1688 03221815143D          

 26 25  0  0  1  0            999 V2000
    0.0440   -3.0630    2.6450 N   0  3  0  0  0  0  0  0  0  0  0  0
   -0.6820   -3.8280    1.5870 C   0  0  2  0  0  0  0  0  0  0  0  0
    0.1740   -5.0210    1.1290 C   0  0  0  0  0  0  0  0  0  0  0  0
    0.0120   -5.5150    0.0290 O   0  0  0  0  0  0  0  0  0  0  0  0
   -0.9670   -2.9020    0.3970 C   0  0  1  0  0  0  0  0  0  0  0  0
   -2.3410   -3.2320   -0.1930 C   0  0  1  0  0  0  0  0  0  0  0  0
   -2.5900   -2.3630   -1.4240 C   0  0  1  0  0  0  0  0  0  0  0  0
   -4.0540   -2.2960   -1.6850 N   0  0  0  0  0  0  0  0  0  0  0  0
   -4.5490   -2.8110   -2.7770 C   0  0  0  0  0  0  0  0  0  0  0  0
   -4.2080   -2.3240   -3.9420 N   0  3  0  0  0  0  0  0  0  0  0  0
   -5.3910   -3.8090   -2.7010 N   0  0  0  0  0  0  0  0  0  0  0  0
    0.9870   -2.7940    2.2960 H   0  0  0  0  0  0  0  0  0  0  0  0
   -0.4950   -2.2060    2.8840 H   0  0  0  0  0  0  0  0  0  0  0  0
    0.1470   -3.6550    3.4930 H   0  0  0  0  0  0  0  0  0  0  0  0
   -1.6160   -4.1930    1.9890 H   0  0  0  0  0  0  0  0  0  0  0  0
   -0.9560   -1.8740    0.7300 H   0  0  0  0  0  0  0  0  0  0  0  0
   -0.2090   -3.0420   -0.3590 H   0  0  0  0  0  0  0  0  0  0  0  0
   -2.3720   -4.2740   -0.4770 H   0  0  0  0  0  0  0  0  0  0  0  0
   -3.1070   -3.0350    0.5440 H   0  0  0  0  0  0  0  0  0  0  0  0
   -2.2090   -1.3680   -1.2460 H   0  0  0  0  0  0  0  0  0  0  0  0
   -2.0890   -2.7940   -2.2780 H   0  0  0  0  0  0  0  0  0  0  0  0
   -4.6490   -1.8750   -1.0300 H   0  0  0  0  0  0  0  0  0  0  0  0
   -3.5680   -1.5580   -3.9940 H   0  0  0  0  0  0  0  0  0  0  0  0
   -4.5930   -2.7100   -4.7790 H   0  0  0  0  0  0  0  0  0  0  0  0
   -5.6530   -4.1740   -1.8070 H   0  0  0  0  0  0  0  0  0  0  0  0
   -5.7750   -4.2060   -3.5330 H   0  0  0  0  0  0  0  0  0  0  0  0
  1 13  1  0  0  0  0
  1 14  1  0  0  0  0
  2 15  1  1  0  0  0
  2  1  1  0  0  0  0
  3  2  1  0  0  0  0
  4  3  2  0  0  0  0
  5 16  1  0  0  0  0
  5  2  1  0  0  0  0
  6  5  1  0  0  0  0
  6 19  1  0  0  0  0
  7 20  1  0  0  0  0
  7  6  1  0  0  0  0
  8  7  1  0  0  0  0
  8 22  1  0  0  0  0
  9 11  1  0  0  0  0
  9  8  1  0  0  0  0
 10  9  2  0  0  0  0
 11 25  1  0  0  0  0
 12  1  1  0  0  0  0
 17  5  1  0  0  0  0
 18  6  1  0  0  0  0
 21  7  1  0  0  0  0
 23 10  1  0  0  0  0
 24 10  1  0  0  0  0
 26 11  1  0  0  0  0
M  CHG  2   1   1  10   1
M  END
>  <HEADER>
    RNA                                     10-MAY-97   1AJU              

>  <TITLE>
    HIV-2 TAR-ARGININAMIDE COMPLEX, NMR, 20 STRUCTURES                    

>  <COMPND>
    MOL_ID: 1;                                                            
   2 MOLECULE: TAR RNA;                                                   
   3 CHAIN: A;                                                            
   4 SYNONYM: TAR;                                                        
   5 ENGINEERED: YES                                                      

>  <SOURCE>
    MOL_ID: 1;                                                            
   2 SYNTHETIC: YES                                                       

>  <KEYWDS>
    COMPLEX (RIBONUCLEIC ACID/LIGAND), NMR, TRANSCRIPTIONAL               
   2 ACTIVATION, PROTEIN-RNA INTERACTIONS                                 

>  <EXPDTA>
    SOLUTION NMR                                                          

>  <AUTHOR>
    A.S.BRODSKY,J.R.WILLIAMSON                                            

>  <REVDAT>
   2   24-FEB-09 1AJU    1       VERSN                                    
   1   17-DEC-97 1AJU    0                                                

>  <JRNL>
      AUTH   A.S.BRODSKY,J.R.WILLIAMSON                                   
      TITL   SOLUTION STRUCTURE OF THE HIV-2 TAR-ARGININAMIDE             
      TITL 2 COMPLEX.                                                     
      REF    J.MOL.BIOL.                   V. 267   624 1997              
      REFN                   ISSN 0022-2836                               
      PMID   9126842                                                      
      DOI    10.1006/JMBI.1996.0879                                       

>  <REMARK>
   1                                                                      
   1 REFERENCE 1                                                          
   1  AUTH   A.GELBIN,B.SCHNEIDER,L.CLOWNY,S.-H.HSIEH,W.K.OLSEN,          
   1  AUTH 2 H.M.BERMAN                                                   
   1  TITL   GEOMETRIC PARAMETERS IN NUCLEIC ACIDS: SUGAR AND             
   1  TITL 2 PHOSPHATE CONSTITUENTS                                       
   1  REF    J.AM.CHEM.SOC.                V. 118   519 1996              
   1  REFN                   ISSN 0002-7863                               
   1 REFERENCE 2                                                          
   1  AUTH   F.ABOUL-ELA,J.KARN,G.VARANI                                  
   1  TITL   THE STRUCTURE OF THE HUMAN IMMUNODEFICIENCY VIRUS            
   1  TITL 2 TYPE-1 TAR RNA REVEALS PRINCIPLES OF RNA                     
   1  TITL 3 RECOGNITION BY TAT PROTEIN                                   
   1  REF    J.MOL.BIOL.                   V. 253   313 1995              
   1  REFN                   ISSN 0022-2836                               
   1 REFERENCE 3                                                          
   1  AUTH   J.D.PUGLISI,L.CHEN,A.D.FRANKEL,J.R.WILLIAMSON                
   1  TITL   ROLE OF RNA STRUCTURE IN ARGININE RECOGNITION OF             
   1  TITL 2 TAR RNA                                                      
   1  REF    PROC.NATL.ACAD.SCI.USA        V.  90  3680 1993              
   1  REFN                   ISSN 0027-8424                               
   1 REFERENCE 4                                                          
   1  AUTH   J.D.PUGLISI,R.TAN,B.J.CALNAN,A.D.FRANKEL,                    
   1  AUTH 2 J.R.WILLIAMSON                                               
   1  TITL   CONFORMATION OF THE TAR RNA-ARGININE COMPLEX BY              
   1  TITL 2 NMR SPECTROSCOPY                                             
   1  REF    SCIENCE                       V. 257    76 1992              
   1  REFN                   ISSN 0036-8075                               
   2                                                                      
   2 RESOLUTION. NOT APPLICABLE.                                          
   3                                                                      
   3 REFINEMENT.                                                          
   3   PROGRAM     : X-PLOR 3.1                                           
   3   AUTHORS     : BRUNGER                                              
   3                                                                      
   3  OTHER REFINEMENT REMARKS: BOND LENGTHS AND ANGLES WERE USED AS      
   3  DESCRIBED BY THE NUCLEIC ACID DATABASE (SEE REFERENCE               
   3  REFINEMENT DETAILS CAN BE FOUND IN THE JRNL CITATION ABOVE.         
   4                                                                      
   4 1AJU COMPLIES WITH FORMAT V. 3.15, 01-DEC-08                         
 100                                                                      
 100 THIS ENTRY HAS BEEN PROCESSED BY BNL.                                
 210                                                                      
 210 EXPERIMENTAL DETAILS                                                 
 210  EXPERIMENT TYPE                : NMR                                
 210  TEMPERATURE           (KELVIN) : 298                                
 210  PH                             : 6.4                                
 210  IONIC STRENGTH                 : NULL                               
 210  PRESSURE                       : NULL                               
 210  SAMPLE CONTENTS                : NULL                               
 210                                                                      
 210  NMR EXPERIMENTS CONDUCTED      : SEE PAPER                          
 210  SPECTROMETER FIELD STRENGTH    : 500 MHZ, 591 MHZ, 750 MHZ          
 210  SPECTROMETER MODEL             : VXR500, UNITY-PLUS, HOME-MADE      
 210  SPECTROMETER MANUFACTURER      : VARIAN, HOME MADE                  
 210                                                                      
 210  STRUCTURE DETERMINATION.                                            
 210   SOFTWARE USED                 : X-PLOR 3.1                         
 210   METHOD USED                   : RANDOM COORDINATES AND             
 210                                   SIMULATED ANNEALING                
 210                                                                      
 210 CONFORMERS, NUMBER CALCULATED   : 20                                 
 210 CONFORMERS, NUMBER SUBMITTED    : 20                                 
 210 CONFORMERS, SELECTION CRITERIA  : LEAST RESTRAINTS AND LOWEST        
 210                                   ENERGY                             
 210                                                                      
 210 BEST REPRESENTATIVE CONFORMER IN THIS ENSEMBLE : NULL                
 210                                                                      
 210 REMARK: NULL                                                         
 215                                                                      
 215 NMR STUDY                                                            
 215 THE COORDINATES IN THIS ENTRY WERE GENERATED FROM SOLUTION           
 215 NMR DATA.  PROTEIN DATA BANK CONVENTIONS REQUIRE THAT                
 215 CRYST1 AND SCALE RECORDS BE INCLUDED, BUT THE VALUES ON              
 215 THESE RECORDS ARE MEANINGLESS.                                       
 500                                                                      
 500 GEOMETRY AND STEREOCHEMISTRY                                         
 500 SUBTOPIC: PLANAR GROUPS                                              
 500                                                                      
 500 PLANAR GROUPS IN THE FOLLOWING RESIDUES HAVE A TOTAL                 
 500 RMS DISTANCE OF ALL ATOMS FROM THE BEST-FIT PLANE                    
 500 BY MORE THAN AN EXPECTED VALUE OF 6*RMSD, WITH AN                    
 500 RMSD 0.02 ANGSTROMS, OR AT LEAST ONE ATOM HAS                        
 500 AN RMSD GREATER THAN THIS VALUE                                      
 500 (M=MODEL NUMBER; RES=RESIDUE NAME; C=CHAIN IDENTIFIER;               
 500 SSEQ=SEQUENCE NUMBER; I=INSERTION CODE).                             
 500                                                                      
 500  M RES CSSEQI        RMS     TYPE                                    
 500  1 ARG A  47         0.28    SIDE_CHAIN                              
 500  2 ARG A  47         0.23    SIDE_CHAIN                              
 500  3 ARG A  47         0.26    SIDE_CHAIN                              
 500  4 ARG A  47         0.22    SIDE_CHAIN                              
 500  5 ARG A  47         0.23    SIDE_CHAIN                              
 500  6 ARG A  47         0.26    SIDE_CHAIN                              
 500  7 ARG A  47         0.26    SIDE_CHAIN                              
 500  8 ARG A  47         0.29    SIDE_CHAIN                              
 500  9 ARG A  47         0.31    SIDE_CHAIN                              
 500 10 ARG A  47         0.24    SIDE_CHAIN                              
 500 11 ARG A  47         0.21    SIDE_CHAIN                              
 500 12 ARG A  47         0.27    SIDE_CHAIN                              
 500 13 ARG A  47         0.28    SIDE_CHAIN                              
 500 14 ARG A  47         0.22    SIDE_CHAIN                              
 500 15 ARG A  47         0.29    SIDE_CHAIN                              
 500 16 ARG A  47         0.32    SIDE_CHAIN                              
 500 17 ARG A  47         0.29    SIDE_CHAIN                              
 500 18 ARG A  47         0.26    SIDE_CHAIN                              
 500 19 ARG A  47         0.28    SIDE_CHAIN                              
 500 20 ARG A  47         0.28    SIDE_CHAIN                              
 500                                                                      
 500 REMARK: NULL                                                         
 610                                                                      
 610 MISSING HETEROATOM                                                   
 610 THE FOLLOWING RESIDUES HAVE MISSING ATOMS (M=MODEL NUMBER;           
 610 RES=RESIDUE NAME; C=CHAIN IDENTIFIER; SSEQ=SEQUENCE NUMBER;          
 610 I=INSERTION CODE):                                                   
 610   M RES C SSEQI                                                      
 610   1 ARG A   47                                                       
 610   2 ARG A   47                                                       
 610   3 ARG A   47                                                       
 610   4 ARG A   47                                                       
 610   5 ARG A   47                                                       
 610   6 ARG A   47                                                       
 610   7 ARG A   47                                                       
 610   8 ARG A   47                                                       
 610   9 ARG A   47                                                       
 610  10 ARG A   47                                                       
 610  11 ARG A   47                                                       
 610  12 ARG A   47                                                       
 610  13 ARG A   47                                                       
 610  14 ARG A   47                                                       
 610  15 ARG A   47                                                       
 610  16 ARG A   47                                                       
 610  17 ARG A   47                                                       
 610  18 ARG A   47                                                       
 610  19 ARG A   47                                                       
 610  20 ARG A   47                                                       
 800                                                                      
 800 SITE                                                                 
 800 SITE_IDENTIFIER: AC1                                                 
 800 EVIDENCE_CODE: SOFTWARE                                              
 800 SITE_DESCRIPTION: BINDING SITE FOR RESIDUE ARG A 47                  
 900                                                                      
 900 RELATED ENTRIES                                                      
 900 RELATED ID: 1AKX   RELATED DB: PDB                                   
 900 MINIMIZED AVERAGE STRUCTURE                                          

>  <DBREF>
 1AJU A   16    46  PDB    1AJU     1AJU            16     46             

>  <SEQRES>
   1 A   30    G   G   C   C   A   G   A   U   U   G   A   G   C          
   2 A   30    C   U   G   G   G   A   G   C   U   C   U   C   U          
   3 A   30    G   G   C   C                                              

>  <HET>
 ARG  A  47      26                                                       

>  <HETNAM>
     ARG ARGININE                                                         

>  <FORMUL>
   2  ARG    C6 H15 N4 O2 1+                                              

>  <SITE>
   1 AC1  5   A A  22    U A  23    G A  26    C A  37                    
   2 AC1  5   U A  38                                                     

>  <ORIGX1>
      1.000000  0.000000  0.000000        0.00000                         

>  <ORIGX2>
      0.000000  1.000000  0.000000        0.00000                         

>  <ORIGX3>
      0.000000  0.000000  1.000000        0.00000                         

>  <SCALE1>
      1.000000  0.000000  0.000000        0.00000                         

>  <SCALE2>
      0.000000  1.000000  0.000000        0.00000                         

>  <SCALE3>
      0.000000  0.000000  1.000000        0.00000                         

>  <NUMMDL>
    20                                                                    

>  <MODEL>
       1

$$$$
