@<TRIPOS>MOLECULE
ligand.pdb
 26 25 0 0 0
SMALL
GASTEIGER

@<TRIPOS>ATOM
      1 N           0.0440   -3.0630    2.6450 N.4     1  ARG1        0.2265
      2 CA         -0.6820   -3.8280    1.5870 C.3     1  ARG1        0.0429
      3 C           0.1740   -5.0210    1.1290 C.2     1  ARG1        0.2507
      4 O           0.0120   -5.5150    0.0290 O.2     1  ARG1       -0.2827
      5 CB         -0.9670   -2.9020    0.3970 C.3     1  ARG1        0.0006
      6 CG         -2.3410   -3.2320   -0.1930 C.3     1  ARG1       -0.0167
      7 CD         -2.5900   -2.3630   -1.4240 C.3     1  ARG1        0.0647
      8 NE         -4.0540   -2.2960   -1.6850 N.pl3   1  ARG1       -0.2787
      9 CZ         -4.5490   -2.8110   -2.7770 C.cat   1  ARG1        0.3410
     10 NH2        -4.2080   -2.3240   -3.9420 N.pl3   1  ARG1       -0.2919
     11 NH1        -5.3910   -3.8090   -2.7010 N.pl3   1  ARG1       -0.2919
     12 H1          0.9870   -2.7940    2.2960 H       1  ARG1        0.2001
     13 H2         -0.4950   -2.2060    2.8840 H       1  ARG1        0.2001
     14 H3          0.1470   -3.6550    3.4930 H       1  ARG1        0.2001
     15 HA         -1.6160   -4.1930    1.9890 H       1  ARG1        0.0936
     16 HB1        -0.9560   -1.8740    0.7300 H       1  ARG1        0.0325
     17 HB2        -0.2090   -3.0420   -0.3590 H       1  ARG1        0.0325
     18 HG1        -2.3720   -4.2740   -0.4770 H       1  ARG1        0.0298
     19 HG2        -3.1070   -3.0350    0.5440 H       1  ARG1        0.0298
     20 HD1        -2.2090   -1.3680   -1.2460 H       1  ARG1        0.0655
     21 HD2        -2.0890   -2.7940   -2.2780 H       1  ARG1        0.0655
     22 HE         -4.6490   -1.8750   -1.0300 H       1  ARG1        0.2578
     23 HH21       -3.5680   -1.5580   -3.9940 H       1  ARG1        0.2545
     24 HH22       -4.5930   -2.7100   -4.7790 H       1  ARG1        0.2545
     25 HH11       -5.6530   -4.1740   -1.8070 H       1  ARG1        0.2545
     26 HH12       -5.7750   -4.2060   -3.5330 H       1  ARG1        0.2545
@<TRIPOS>BOND
     1     1    13    1
     2     1    14    1
     3     2    15    1
     4     2     1    1
     5     3     2    1
     6     4     3    2
     7     5    16    1
     8     5     2    1
     9     6     5    1
    10     6    19    1
    11     7    20    1
    12     7     6    1
    13     8     7    1
    14     8    22    1
    15     9    11    1
    16     9     8    1
    17    10     9    2
    18    11    25    1
    19    12     1    1
    20    17     5    1
    21    18     6    1
    22    21     7    1
    23    23    10    1
    24    24    10    1
    25    26    11    1
