REMARK  12 active torsions:
REMARK  status: ('A' for Active; 'I' for Inactive)
REMARK    1  A    between atoms: N_6  and  C_5 
REMARK    2  A    between atoms: C_9  and  C_7 
REMARK    3  A    between atoms: N_10  and  C_9 
REMARK    4  A    between atoms: C_16  and  C_13 
REMARK    5  A    between atoms: C_17  and  C_16 
REMARK    6  A    between atoms: O_18  and  C_17 
REMARK    7  A    between atoms: P_19  and  O_18 
REMARK    8  A    between atoms: O_21  and  P_19 
REMARK    9  A    between atoms: O_22  and  P_19 
REMARK   10  A    between atoms: P_23  and  O_22 
REMARK   11  A    between atoms: O_25  and  P_23 
REMARK   12  A    between atoms: O_26  and  P_23 
ROOT
ATOM      1  N   UNL d   1      -0.907  -2.913  -0.384  0.00  0.00    -0.349 N 
ATOM      2  C   UNL d   1      -0.835  -2.911   0.937  0.00  0.00     0.141 C 
ATOM      3  S   UNL d   1      -2.385  -2.963   1.654  0.00  0.00    -0.087 SA
ATOM      4  C   UNL d   1      -3.128  -3.256   0.131  0.00  0.00     0.008 C 
ATOM      5  C   UNL d   1      -2.206  -3.043  -0.882  0.00  0.00     0.021 C 
ATOM      6  C   UNL d   1      -2.406  -3.377  -2.322  0.00  0.00     0.069 C 
ENDROOT
BRANCH   4   7
ATOM      7  C   UNL d   1      -4.629  -3.273   0.036  0.00  0.00     0.075 C 
BRANCH   7   8
ATOM      8  C   UNL d   1      -5.172  -4.680   0.242  0.00  0.00     0.185 C 
BRANCH   8   9
ATOM      9  O   UNL d   1      -6.583  -4.636   0.072  0.00  0.00    -0.296 OA
BRANCH   9  10
ATOM     10  P   UNL d   1      -7.443  -5.960  -0.278  0.00  0.00     0.401 P 
ATOM     11  O   UNL d   1      -8.661  -5.699  -1.118  0.00  0.00    -0.631 OA
BRANCH  10  12
ATOM     12  O   UNL d   1      -6.393  -6.997  -0.939  0.00  0.00    -0.307 OA
ATOM     13  H   UNL d   1      -6.734  -7.771  -1.435  0.00  0.00     0.222 HD
ENDBRANCH  10  12
BRANCH  10  14
ATOM     14  O   UNL d   1      -7.751  -6.627   1.161  0.00  0.00    -0.195 OA
BRANCH  14  15
ATOM     15  P   UNL d   1      -8.243  -6.012   2.569  0.00  0.00     0.399 P 
ATOM     16  O   UNL d   1      -7.160  -5.405   3.411  0.00  0.00    -0.631 OA
BRANCH  15  17
ATOM     17  O   UNL d   1      -9.031  -7.245   3.259  0.00  0.00    -0.307 OA
ATOM     18  H   UNL d   1      -9.265  -8.027   2.716  0.00  0.00     0.222 HD
ENDBRANCH  15  17
BRANCH  15  19
ATOM     19  O   UNL d   1      -9.437  -5.005   2.154  0.00  0.00    -0.307 OA
ATOM     20  H   UNL d   1      -9.235  -4.052   2.037  0.00  0.00     0.222 HD
ENDBRANCH  15  19
ENDBRANCH  14  15
ENDBRANCH  10  14
ENDBRANCH   9  10
ENDBRANCH   8   9
ENDBRANCH   7   8
ENDBRANCH   4   7
BRANCH   1  21
ATOM     21  C   UNL d   1       0.264  -2.780  -1.271  0.00  0.00     0.172 C 
BRANCH  21  22
ATOM     22  C   UNL d   1       1.562  -2.456  -0.579  0.00  0.00     0.018 C 
ATOM     23  C   UNL d   1       2.125  -1.179  -0.520  0.00  0.00     0.112 C 
ATOM     24  N   UNL d   1       3.402  -0.990  -0.098  0.00  0.00    -0.222 NA
ATOM     25  C   UNL d   1       4.137  -2.091   0.174  0.00  0.00     0.123 C 
ATOM     26  N   UNL d   1       3.655  -3.345   0.251  0.00  0.00    -0.245 NA
ATOM     27  C   UNL d   1       5.593  -1.893   0.453  0.00  0.00     0.093 C 
ATOM     28  C   UNL d   1       2.370  -3.487  -0.117  0.00  0.00     0.131 C 
BRANCH  23  29
ATOM     29  N   UNL d   1       1.386  -0.047  -0.928  0.00  0.00    -0.286 NA
ATOM     30  H   UNL d   1       0.385  -0.174  -0.805  0.00  0.00     0.125 HD
ATOM     31  H   UNL d   1       1.681   0.770  -0.397  0.00  0.00     0.125 HD
ENDBRANCH  23  29
ENDBRANCH  21  22
ENDBRANCH   1  21
TORSDOF 12
