@<TRIPOS>MOLECULE
2CKY_TPP_A_1084
 45 46 0 0 0
SMALL
GASTEIGER

@<TRIPOS>ATOM
      1 N           3.6555   -3.3445    0.2512 N.ar    1  UNL1       -0.2400
      2 C           4.1373   -2.0908    0.1740 C.ar    1  UNL1        0.1280
      3 C           5.5926   -1.8934    0.4533 C.3     1  UNL1       -0.0046
      4 N           3.4017   -0.9896   -0.0977 N.ar    1  UNL1       -0.2176
      5 C           2.1254   -1.1792   -0.5203 C.ar    1  UNL1        0.1289
      6 N           1.3863   -0.0471   -0.9282 N.pl3   1  UNL1       -0.3427
      7 C           1.5620   -2.4557   -0.5793 C.ar    1  UNL1        0.0747
      8 C           2.3700   -3.4870   -0.1172 C.ar    1  UNL1        0.0421
      9 C           0.2635   -2.7798   -1.2712 C.3     1  UNL1        0.1811
     10 N          -0.9069   -2.9128   -0.3844 N.ar    1  UNL1       -0.1903
     11 C          -0.8349   -2.9109    0.9374 C.ar    1  UNL1        0.2109
     12 S          -2.3848   -2.9634    1.6543 S.2     1  UNL1       -0.0273
     13 C          -3.1276   -3.2560    0.1313 C.ar    1  UNL1        0.0636
     14 C          -2.2060   -3.0427   -0.8824 C.ar    1  UNL1        0.1915
     15 C          -2.4065   -3.3775   -2.3224 C.3     1  UNL1        0.0216
     16 C          -4.6288   -3.2727    0.0362 C.3     1  UNL1        0.0088
     17 C          -5.1719   -4.6799    0.2419 C.3     1  UNL1        0.0637
     18 O          -6.5828   -4.6358    0.0725 O.3     1  UNL1       -0.2860
     19 P          -7.4434   -5.9597   -0.2783 P.3     1  UNL1        0.4834
     20 O          -8.6608   -5.6990   -1.1179 O.2     1  UNL1       -0.2269
     21 O          -6.3928   -6.9975   -0.9388 O.3     1  UNL1       -0.3022
     22 O          -7.7509   -6.6268    1.1605 O.3     1  UNL1       -0.1862
     23 P          -8.2431   -6.0124    2.5691 P.3     1  UNL1        0.4808
     24 O          -7.1595   -5.4055    3.4112 O.2     1  UNL1       -0.2271
     25 O          -9.0307   -7.2445    3.2591 O.3     1  UNL1       -0.3023
     26 O          -9.4367   -5.0046    2.1536 O.3     1  UNL1       -0.3023
     27 H           6.0782   -1.4431   -0.4183 H       1  UNL1        0.0308
     28 H           6.0863   -2.8478    0.6622 H       1  UNL1        0.0308
     29 H           5.7279   -1.2348    1.3155 H       1  UNL1        0.0308
     30 H           0.3848   -0.1741   -0.8048 H       1  UNL1        0.1437
     31 H           1.6813    0.7700   -0.3971 H       1  UNL1        0.1437
     32 H           1.9553   -4.4784    0.0519 H       1  UNL1        0.0836
     33 H           0.3751   -3.7226   -1.8216 H       1  UNL1        0.1087
     34 H           0.0441   -1.9990   -2.0091 H       1  UNL1        0.1087
     35 H           0.0675   -2.8142    1.5202 H       1  UNL1        0.1462
     36 H          -3.3633   -2.9816   -2.6779 H       1  UNL1        0.0336
     37 H          -1.6394   -2.9669   -2.9810 H       1  UNL1        0.0336
     38 H          -2.4225   -4.4650   -2.4539 H       1  UNL1        0.0336
     39 H          -5.0644   -2.5898    0.7766 H       1  UNL1        0.0343
     40 H          -4.9433   -2.8941   -0.9446 H       1  UNL1        0.0343
     41 H          -4.9586   -5.0411    1.2527 H       1  UNL1        0.0569
     42 H          -4.7211   -5.3619   -0.4848 H       1  UNL1        0.0569
     43 H          -6.7342   -7.7708   -1.4350 H       1  UNL1        0.2220
     44 H          -9.2655   -8.0274    2.7161 H       1  UNL1        0.2220
     45 H          -9.2352   -4.0521    2.0367 H       1  UNL1        0.2220
@<TRIPOS>BOND
     1     2     1   ar
     2     3     2    1
     3     4     2   ar
     4     5     4   ar
     5     6     5    1
     6     7     5   ar
     7     8     7   ar
     8     8     1   ar
     9     9     7    1
    10    10     9    1
    11    11    10   ar
    12    12    11   ar
    13    13    12   ar
    14    14    13   ar
    15    14    10   ar
    16    15    14    1
    17    16    13    1
    18    17    16    1
    19    18    17    1
    20    19    18    1
    21    20    19    2
    22    21    19    1
    23    22    19    1
    24    23    22    1
    25    24    23    2
    26    25    23    1
    27    26    23    1
    28     3    27    1
    29     3    28    1
    30     3    29    1
    31     6    30    1
    32     6    31    1
    33     8    32    1
    34     9    33    1
    35     9    34    1
    36    11    35    1
    37    15    36    1
    38    15    37    1
    39    15    38    1
    40    16    39    1
    41    16    40    1
    42    17    41    1
    43    17    42    1
    44    21    43    1
    45    25    44    1
    46    26    45    1
