REMARK  11 active torsions:
REMARK  status: ('A' for Active; 'I' for Inactive)
REMARK    1  A    between atoms: C_2  and  O_1 
REMARK    2  A    between atoms: C_3  and  O_4 
REMARK    3  A    between atoms: C_5  and  N_6 
REMARK    4  A    between atoms: C_8  and  N_9 
REMARK    5  A    between atoms: C_10  and  O_11 
REMARK    6  A    between atoms: O_11  and  C_12 
REMARK    7  A    between atoms: C_14  and  C_15 
REMARK    8  A    between atoms: C_15  and  N_16 
REMARK    9  A    between atoms: C_17  and  O_18 
REMARK   10  A    between atoms: C_19  and  O_20 
REMARK   11  A    between atoms: C_21  and  N_22 
ROOT
ATOM      1  C   UNL d   1       3.184   2.849   0.520  0.00  0.00     0.296 C 
ATOM      2  O   UNL d   1       4.552   3.018   0.123  0.00  0.00    -0.349 OA
ATOM      3  C   UNL d   1       4.698   3.885  -1.020  0.00  0.00     0.183 C 
ATOM      4  C   UNL d   1       4.162   5.292  -0.702  0.00  0.00     0.179 C 
ATOM      5  C   UNL d   1       2.679   5.187  -0.314  0.00  0.00     0.187 C 
ATOM      6  C   UNL d   1       2.514   4.207   0.859  0.00  0.00     0.303 C 
ENDROOT
BRANCH   1   7
ATOM      7  O   UNL d   1       2.431   2.138  -0.467  0.00  0.00    -0.349 OA
BRANCH   7   8
ATOM      8  C   UNL d   1       2.970   0.851  -0.850  0.00  0.00     0.189 C 
ATOM      9  C   UNL d   1       2.071   0.293  -1.999  0.00  0.00     0.251 C 
ATOM     10  C   UNL d   1       2.474  -1.130  -2.416  0.00  0.00     0.076 C 
ATOM     11  C   UNL d   1       2.475  -2.086  -1.222  0.00  0.00     0.251 C 
ATOM     12  C   UNL d   1       3.402  -1.561  -0.119  0.00  0.00     0.182 C 
ATOM     13  C   UNL d   1       3.021  -0.149   0.331  0.00  0.00     0.180 C 
BRANCH   9  14
ATOM     14  N   UNL d   1       2.099   1.166  -3.190  0.00  0.00     0.085 N 
ATOM     15  H   UNL d   1       1.453   0.800  -3.889  0.00  0.00     0.313 HD
ATOM     16  H   UNL d   1       3.022   1.139  -3.622  0.00  0.00     0.313 HD
ENDBRANCH   9  14
BRANCH  11  17
ATOM     17  N   UNL d   1       2.890  -3.434  -1.644  0.00  0.00     0.085 N 
ATOM     18  H   UNL d   1       2.920  -4.007  -0.792  0.00  0.00     0.313 HD
ATOM     19  H   UNL d   1       3.859  -3.415  -1.960  0.00  0.00     0.313 HD
ENDBRANCH  11  17
BRANCH  12  20
ATOM     20  O   UNL d   1       3.356  -2.444   1.013  0.00  0.00    -0.391 OA
ATOM     21  H   UNL d   1       3.701  -1.917   1.764  0.00  0.00     0.210 HD
ENDBRANCH  12  20
BRANCH  13  22
ATOM     22  O   UNL d   1       4.005   0.195   1.328  0.00  0.00    -0.390 OA
ATOM     23  H   UNL d   1       4.715   0.707   0.894  0.00  0.00     0.210 HD
ENDBRANCH  13  22
ENDBRANCH   7   8
ENDBRANCH   1   7
BRANCH   6  24
ATOM     24  N   UNL d   1       1.091   4.080   1.254  0.00  0.00     0.090 N 
ATOM     25  H   UNL d   1       0.597   3.605   0.495  0.00  0.00     0.313 HD
ATOM     26  H   UNL d   1       0.706   5.029   1.278  0.00  0.00     0.313 HD
ENDBRANCH   6  24
BRANCH   3  27
ATOM     27  C   UNL d   1       6.189   3.942  -1.411  0.00  0.00     0.301 C 
BRANCH  27  28
ATOM     28  N   UNL d   1       6.689   2.618  -1.807  0.00  0.00     0.080 N 
ATOM     29  H   UNL d   1       6.634   2.008  -0.989  0.00  0.00     0.312 HD
ATOM     30  H   UNL d   1       7.681   2.694  -2.032  0.00  0.00     0.312 HD
ENDBRANCH  27  28
ENDBRANCH   3  27
BRANCH   5  31
ATOM     31  O   UNL d   1       2.188   6.483   0.068  0.00  0.00    -0.391 OA
ATOM     32  H   UNL d   1       2.574   7.109  -0.576  0.00  0.00     0.210 HD
ENDBRANCH   5  31
BRANCH   4  33
ATOM     33  O   UNL d   1       4.297   6.211  -1.787  0.00  0.00    -0.390 OA
ATOM     34  H   UNL d   1       4.182   5.728  -2.625  0.00  0.00     0.210 HD
ENDBRANCH   4  33
TORSDOF 11
