@<TRIPOS>MOLECULE
2F4S_XXX_B_501
 48 49 0 0 0
SMALL
GASTEIGER

@<TRIPOS>ATOM
      1 O           4.0055    0.1948    1.3284 O.3     1  UNL1       -0.3866
      2 C           3.0206   -0.1492    0.3310 C.3     1  UNL1        0.1101
      3 H           2.0582   -0.1580    0.8572 H       1  UNL1        0.0646
      4 C           3.4020   -1.5614   -0.1193 C.3     1  UNL1        0.0986
      5 H           4.4449   -1.5623   -0.4624 H       1  UNL1        0.0635
      6 O           3.3561   -2.4443    1.0134 O.3     1  UNL1       -0.3876
      7 C           2.4750   -2.0855   -1.2219 C.3     1  UNL1        0.0351
      8 H           1.4567   -2.1777   -0.8250 H       1  UNL1        0.0485
      9 N           2.8897   -3.4342   -1.6442 N.3     1  UNL1       -0.3250
     10 C           2.4740   -1.1303   -2.4160 C.3     1  UNL1       -0.0175
     11 C           2.0711    0.2927   -1.9987 C.3     1  UNL1        0.0355
     12 H           1.0314    0.2833   -1.6443 H       1  UNL1        0.0485
     13 N           2.0990    1.1656   -3.1897 N.3     1  UNL1       -0.3250
     14 C           2.9697    0.8509   -0.8502 C.3     1  UNL1        0.1051
     15 H           3.9826    1.0035   -1.2420 H       1  UNL1        0.0639
     16 O           2.4313    2.1379   -0.4669 O.3     1  UNL1       -0.3422
     17 C           3.1839    2.8487    0.5198 C.3     1  UNL1        0.1776
     18 H           3.1701    2.2844    1.4547 H       1  UNL1        0.0927
     19 O           4.5519    3.0184    0.1228 O.3     1  UNL1       -0.3425
     20 C           4.6983    3.8851   -1.0203 C.3     1  UNL1        0.1022
     21 H           4.1479    3.4642   -1.8723 H       1  UNL1        0.0636
     22 C           6.1894    3.9420   -1.4108 C.3     1  UNL1        0.0222
     23 N           6.6886    2.6179   -1.8066 N.3     1  UNL1       -0.3276
     24 C           4.1615    5.2915   -0.7023 C.3     1  UNL1        0.1100
     25 H           4.7130    5.7220    0.1426 H       1  UNL1        0.0646
     26 O           4.2972    6.2112   -1.7868 O.3     1  UNL1       -0.3866
     27 C           2.6792    5.1867   -0.3138 C.3     1  UNL1        0.1033
     28 H           2.0828    4.8723   -1.1794 H       1  UNL1        0.0637
     29 O           2.1883    6.4826    0.0677 O.3     1  UNL1       -0.3874
     30 C           2.5135    4.2072    0.8590 C.3     1  UNL1        0.0853
     31 H           3.0382    4.6361    1.7235 H       1  UNL1        0.0535
     32 N           1.0906    4.0796    1.2540 N.3     1  UNL1       -0.3211
     33 H           4.7152    0.7067    0.8941 H       1  UNL1        0.2100
     34 H           3.7012   -1.9172    1.7639 H       1  UNL1        0.2100
     35 H           2.9203   -4.0066   -0.7917 H       1  UNL1        0.1185
     36 H           3.8592   -3.4148   -1.9605 H       1  UNL1        0.1185
     37 H           1.7793   -1.5049   -3.1812 H       1  UNL1        0.0297
     38 H           3.4705   -1.1132   -2.8776 H       1  UNL1        0.0297
     39 H           1.4528    0.8004   -3.8894 H       1  UNL1        0.1185
     40 H           3.0224    1.1393   -3.6215 H       1  UNL1        0.1185
     41 H           6.7865    4.2945   -0.5620 H       1  UNL1        0.0448
     42 H           6.3417    4.6311   -2.2474 H       1  UNL1        0.0448
     43 H           6.6340    2.0084   -0.9886 H       1  UNL1        0.1183
     44 H           7.6806    2.6941   -2.0324 H       1  UNL1        0.1183
     45 H           4.1819    5.7275   -2.6254 H       1  UNL1        0.2100
     46 H           2.5738    7.1090   -0.5764 H       1  UNL1        0.2100
     47 H           0.5966    3.6047    0.4951 H       1  UNL1        0.1187
     48 H           0.7058    5.0292    1.2776 H       1  UNL1        0.1187
@<TRIPOS>BOND
     1     1    33    1
     2     2     4    1
     3     2     3    1
     4     2     1    1
     5     4     5    1
     6     4     6    1
     7     4     7    1
     8     6    34    1
     9     7     8    1
    10     7     9    1
    11     7    10    1
    12     9    35    1
    13     9    36    1
    14    10    11    1
    15    10    37    1
    16    10    38    1
    17    11    12    1
    18    11    13    1
    19    11    14    1
    20    13    39    1
    21    13    40    1
    22    14     2    1
    23    14    16    1
    24    14    15    1
    25    16    17    1
    26    17    18    1
    27    17    19    1
    28    17    30    1
    29    19    20    1
    30    20    21    1
    31    20    22    1
    32    20    24    1
    33    22    23    1
    34    22    41    1
    35    22    42    1
    36    23    43    1
    37    23    44    1
    38    24    27    1
    39    24    26    1
    40    24    25    1
    41    26    45    1
    42    27    28    1
    43    27    29    1
    44    27    30    1
    45    29    46    1
    46    30    32    1
    47    30    31    1
    48    32    47    1
    49    32    48    1
