2F4S_XXX_B_501
 OpenBabel03221817213D

 48 49  0  0  1  0  0  0  0  0999 V2000
    4.0055    0.1948    1.3284 O   0  0  0  0  0  0  0  0  0  0  0  0
    3.0206   -0.1492    0.3310 C   0  0  2  0  0  0  0  0  0  0  0  0
    2.0582   -0.1580    0.8572 H   0  0  0  0  0  0  0  0  0  0  0  0
    3.4020   -1.5614   -0.1193 C   0  0  1  0  0  0  0  0  0  0  0  0
    4.4449   -1.5623   -0.4624 H   0  0  0  0  0  0  0  0  0  0  0  0
    3.3561   -2.4443    1.0134 O   0  0  0  0  0  0  0  0  0  0  0  0
    2.4750   -2.0855   -1.2219 C   0  0  2  0  0  0  0  0  0  0  0  0
    1.4567   -2.1777   -0.8250 H   0  0  0  0  0  0  0  0  0  0  0  0
    2.8897   -3.4342   -1.6442 N   0  0  0  0  0  0  0  0  0  0  0  0
    2.4740   -1.1303   -2.4160 C   0  0  0  0  0  0  0  0  0  0  0  0
    2.0711    0.2927   -1.9987 C   0  0  2  0  0  0  0  0  0  0  0  0
    1.0314    0.2833   -1.6443 H   0  0  0  0  0  0  0  0  0  0  0  0
    2.0990    1.1656   -3.1897 N   0  0  0  0  0  0  0  0  0  0  0  0
    2.9697    0.8509   -0.8502 C   0  0  1  0  0  0  0  0  0  0  0  0
    3.9826    1.0035   -1.2420 H   0  0  0  0  0  0  0  0  0  0  0  0
    2.4313    2.1379   -0.4669 O   0  0  0  0  0  0  0  0  0  0  0  0
    3.1839    2.8487    0.5198 C   0  0  1  0  0  0  0  0  0  0  0  0
    3.1701    2.2844    1.4547 H   0  0  0  0  0  0  0  0  0  0  0  0
    4.5519    3.0184    0.1228 O   0  0  0  0  0  0  0  0  0  0  0  0
    4.6983    3.8851   -1.0203 C   0  0  2  0  0  0  0  0  0  0  0  0
    4.1479    3.4642   -1.8723 H   0  0  0  0  0  0  0  0  0  0  0  0
    6.1894    3.9420   -1.4108 C   0  0  0  0  0  0  0  0  0  0  0  0
    6.6886    2.6179   -1.8066 N   0  0  0  0  0  0  0  0  0  0  0  0
    4.1615    5.2915   -0.7023 C   0  0  1  0  0  0  0  0  0  0  0  0
    4.7130    5.7220    0.1426 H   0  0  0  0  0  0  0  0  0  0  0  0
    4.2972    6.2112   -1.7868 O   0  0  0  0  0  0  0  0  0  0  0  0
    2.6792    5.1867   -0.3138 C   0  0  2  0  0  0  0  0  0  0  0  0
    2.0828    4.8723   -1.1794 H   0  0  0  0  0  0  0  0  0  0  0  0
    2.1883    6.4826    0.0677 O   0  0  0  0  0  0  0  0  0  0  0  0
    2.5135    4.2072    0.8590 C   0  0  1  0  0  0  0  0  0  0  0  0
    3.0382    4.6361    1.7235 H   0  0  0  0  0  0  0  0  0  0  0  0
    1.0906    4.0796    1.2540 N   0  0  0  0  0  0  0  0  0  0  0  0
    4.7152    0.7067    0.8941 H   0  0  0  0  0  0  0  0  0  0  0  0
    3.7012   -1.9172    1.7639 H   0  0  0  0  0  0  0  0  0  0  0  0
    2.9203   -4.0066   -0.7917 H   0  0  0  0  0  0  0  0  0  0  0  0
    3.8592   -3.4148   -1.9605 H   0  0  0  0  0  0  0  0  0  0  0  0
    1.7793   -1.5049   -3.1812 H   0  0  0  0  0  0  0  0  0  0  0  0
    3.4705   -1.1132   -2.8776 H   0  0  0  0  0  0  0  0  0  0  0  0
    1.4528    0.8004   -3.8894 H   0  0  0  0  0  0  0  0  0  0  0  0
    3.0224    1.1393   -3.6215 H   0  0  0  0  0  0  0  0  0  0  0  0
    6.7865    4.2945   -0.5620 H   0  0  0  0  0  0  0  0  0  0  0  0
    6.3417    4.6311   -2.2474 H   0  0  0  0  0  0  0  0  0  0  0  0
    6.6340    2.0084   -0.9886 H   0  0  0  0  0  0  0  0  0  0  0  0
    7.6806    2.6941   -2.0324 H   0  0  0  0  0  0  0  0  0  0  0  0
    4.1819    5.7275   -2.6254 H   0  0  0  0  0  0  0  0  0  0  0  0
    2.5738    7.1090   -0.5764 H   0  0  0  0  0  0  0  0  0  0  0  0
    0.5966    3.6047    0.4951 H   0  0  0  0  0  0  0  0  0  0  0  0
    0.7058    5.0292    1.2776 H   0  0  0  0  0  0  0  0  0  0  0  0
  1 33  1  0  0  0  0
  2  4  1  6  0  0  0
  2  3  1  0  0  0  0
  2  1  1  0  0  0  0
  4  5  1  0  0  0  0
  4  6  1  0  0  0  0
  4  7  1  6  0  0  0
  6 34  1  0  0  0  0
  7  8  1  1  0  0  0
  7  9  1  0  0  0  0
  7 10  1  0  0  0  0
  9 35  1  0  0  0  0
  9 36  1  0  0  0  0
 10 11  1  0  0  0  0
 10 37  1  0  0  0  0
 10 38  1  0  0  0  0
 11 12  1  0  0  0  0
 11 13  1  0  0  0  0
 11 14  1  1  0  0  0
 13 39  1  0  0  0  0
 13 40  1  0  0  0  0
 14  2  1  1  0  0  0
 14 16  1  0  0  0  0
 14 15  1  0  0  0  0
 16 17  1  0  0  0  0
 17 18  1  0  0  0  0
 17 19  1  0  0  0  0
 17 30  1  1  0  0  0
 19 20  1  0  0  0  0
 20 21  1  0  0  0  0
 20 22  1  0  0  0  0
 20 24  1  1  0  0  0
 22 23  1  0  0  0  0
 22 41  1  0  0  0  0
 22 42  1  0  0  0  0
 23 43  1  0  0  0  0
 23 44  1  0  0  0  0
 24 27  1  1  0  0  0
 24 26  1  0  0  0  0
 24 25  1  0  0  0  0
 26 45  1  0  0  0  0
 27 28  1  0  0  0  0
 27 29  1  0  0  0  0
 27 30  1  1  0  0  0
 29 46  1  0  0  0  0
 30 32  1  0  0  0  0
 30 31  1  1  0  0  0
 32 47  1  0  0  0  0
 32 48  1  0  0  0  0
M  END
$$$$
