@<TRIPOS>MOLECULE
3GAO_XAN_A_90
 15 16 0 0 0
SMALL
GASTEIGER

@<TRIPOS>ATOM
      1 N           1.7982   -0.8081   -0.1374 N.ar    1  UNL1       -0.3305
      2 H           2.2110   -1.7303   -0.1940 H       1  UNL1        0.1682
      3 C           0.4782   -0.4955   -0.0421 C.ar    1  UNL1        0.1449
      4 N          -0.5990   -1.3308   -0.0953 N.ar    1  UNL1       -0.2922
      5 H          -0.5110   -2.3345   -0.1824 H       1  UNL1        0.1718
      6 C          -1.8633   -0.7772   -0.0114 C.ar    1  UNL1        0.3283
      7 O          -2.8666   -1.4857   -0.0396 O.2     1  UNL1       -0.2466
      8 N          -1.9384    0.6034    0.1072 N.ar    1  UNL1       -0.2732
      9 H          -2.8606    1.0055    0.1627 H       1  UNL1        0.1735
     10 C          -0.8846    1.5112    0.1521 C.ar    1  UNL1        0.2816
     11 O          -1.0565    2.7212    0.2554 O.2     1  UNL1       -0.2653
     12 C           0.4068    0.8685    0.0538 C.ar    1  UNL1        0.1700
     13 N           1.6617    1.4109    0.0967 N.ar    1  UNL1       -0.2289
     14 C           2.4751    0.3811   -0.0168 C.ar    1  UNL1        0.0957
     15 H           3.5489    0.4602   -0.1088 H       1  UNL1        0.1027
@<TRIPOS>BOND
     1     1     2    1
     2     3     1   ar
     3     4     3   ar
     4     4     5    1
     5     6     4   ar
     6     7     6    2
     7     8     6   ar
     8     8     9    1
     9    10     8   ar
    10    11    10    2
    11    12    10   ar
    12    12     3   ar
    13    13    12   ar
    14    14    13   ar
    15    14     1   ar
    16    14    15    1
