@<TRIPOS>MOLECULE
*****
 26 25 0 0 0
SMALL
GASTEIGER

@<TRIPOS>ATOM
      1 N          -3.3241    0.3903    0.8663 N.3     1  ARG1       -0.3215
      2 CA         -2.3415   -0.0902   -0.1020 C.3     1  ARG1        0.0610
      3 HA         -1.9208    0.7532   -0.6631 H       1  ARG1        0.0534
      4 C          -3.1219   -0.9396   -1.0894 C.2     1  ARG1        0.1369
      5 O          -2.6138   -1.7969   -1.8087 O.2     1  ARG1       -0.2994
      6 CB         -1.2221   -0.9135    0.5634 C.3     1  ARG1       -0.0283
      7 CG         -0.3100   -0.0659    1.4650 C.3     1  ARG1       -0.0204
      8 CD          0.8988   -0.8386    2.0007 C.3     1  ARG1        0.0646
      9 NE          0.6230   -1.4207    3.3269 N.pl3   1  ARG1       -0.2787
     10 CZ          1.4122   -2.4388    3.8635 C.cat   1  ARG1        0.3410
     11 NH1         1.8385   -2.3466    5.1848 N.pl3   1  ARG1       -0.2919
     12 HH11        1.6186   -1.5331    5.7540 H       1  ARG1        0.2545
     13 HH12        2.3644   -3.0983    5.6246 H       1  ARG1        0.2545
     14 NH2         1.7440   -3.5621    3.1146 N.pl3   1  ARG1       -0.2919
     15 H1         -3.7411    1.2564    0.5266 H       1  ARG1        0.1188
     16 H2         -2.8743    0.6311    1.7466 H       1  ARG1        0.1188
     17 H          -4.2031   -0.7282   -1.1747 H       1  ARG1        0.1043
     18 HB1        -0.6041   -1.3685   -0.2221 H       1  ARG1        0.0285
     19 HB2        -1.6574   -1.7365    1.1445 H       1  ARG1        0.0285
     20 HG1        -0.8832    0.3299    2.3101 H       1  ARG1        0.0296
     21 HG2         0.0532    0.7998    0.8988 H       1  ARG1        0.0296
     22 HD1         1.7448   -0.1547    2.1261 H       1  ARG1        0.0655
     23 HD2         1.2054   -1.6288    1.3095 H       1  ARG1        0.0655
     24 HE          0.0064   -0.9251    3.9682 H       1  ARG1        0.2578
     25 HH21        2.1195   -4.3967    3.5598 H       1  ARG1        0.2545
     26 HH22        1.7221   -3.5506    2.0993 H       1  ARG1        0.2545
@<TRIPOS>BOND
     1     2     1    1
     2     2     3    1
     3     4     2    1
     4     5     4    2
     5     6     2    1
     6     7     6    1
     7     8     7    1
     8     9     8    1
     9    10     9    1
    10    11    10    2
    11    11    12    1
    12    11    13    1
    13    14    10    1
    14     1    15    1
    15     1    16    1
    16     4    17    1
    17     6    18    1
    18     6    19    1
    19     7    20    1
    20     7    21    1
    21     8    22    1
    22     8    23    1
    23     9    24    1
    24    14    25    1
    25    14    26    1
