REMARK  6 active torsions:
REMARK  status: ('A' for Active; 'I' for Inactive)
REMARK    1  A    between atoms: CA_2  and  N_1 
REMARK    2  A    between atoms: C_3  and  CA_2 
REMARK    3  A    between atoms: CB_5  and  CA_2 
REMARK    4  A    between atoms: CG_6  and  CB_5 
REMARK    5  A    between atoms: CD_7  and  CG_6 
REMARK    6  A    between atoms: NE_8  and  CD_7 
REMARK       I    between atoms: CZ_9  and  NE_8 
REMARK       I    between atoms: NH1_10  and  CZ_9 
REMARK       I    between atoms: NH2_13  and  CZ_9 
ROOT
ATOM      1  CD  ARG d   1       0.899  -0.839   2.001  0.00  0.00     0.138 C 
ENDROOT
BRANCH   1   2
ATOM      2  CG  ARG d   1      -0.310  -0.066   1.465  0.00  0.00     0.023 C 
BRANCH   2   3
ATOM      3  CB  ARG d   1      -1.222  -0.913   0.563  0.00  0.00     0.044 C 
BRANCH   3   4
ATOM      4  CA  ARG d   1      -2.341  -0.090  -0.102  0.00  0.00     0.278 C 
BRANCH   4   5
ATOM      5  N   ARG d   1      -3.324   0.390   0.866  0.00  0.00     0.089 N 
ATOM      6  H1  ARG d   1      -3.741   1.256   0.527  0.00  0.00     0.313 HD
ATOM      7  H2  ARG d   1      -2.874   0.631   1.747  0.00  0.00     0.313 HD
ENDBRANCH   4   5
BRANCH   4   8
ATOM      8  C   ARG d   1      -3.122  -0.940  -1.089  0.00  0.00     0.266 C 
ATOM      9  O   ARG d   1      -2.614  -1.797  -1.809  0.00  0.00    -0.305 OA
ENDBRANCH   4   8
ENDBRANCH   3   4
ENDBRANCH   2   3
ENDBRANCH   1   2
BRANCH   1  10
ATOM     10  NE  ARG d   1       0.623  -1.421   3.327  0.00  0.00    -0.227 N 
ATOM     11  CZ  ARG d   1       1.412  -2.439   3.864  0.00  0.00     0.665 C 
ATOM     12  NH1 ARG d   1       1.839  -2.347   5.185  0.00  0.00    -0.235 N 
ATOM     13  NH2 ARG d   1       1.744  -3.562   3.115  0.00  0.00    -0.235 N 
ATOM     14 1HH1 ARG d   1       1.619  -1.533   5.754  0.00  0.00     0.174 HD
ATOM     15 2HH1 ARG d   1       2.364  -3.098   5.625  0.00  0.00     0.174 HD
ATOM     16 1HH2 ARG d   1       2.119  -4.397   3.560  0.00  0.00     0.174 HD
ATOM     17 2HH2 ARG d   1       1.722  -3.551   2.099  0.00  0.00     0.174 HD
ATOM     18  HE  ARG d   1       0.006  -0.925   3.968  0.00  0.00     0.177 HD
ENDBRANCH   1  10
TORSDOF 6
