@<TRIPOS>MOLECULE
3LA5_5AZ_A_84
 12 12 0 0 0
SMALL
GASTEIGER

@<TRIPOS>ATOM
      1 C          -1.3529   -0.0317    0.0377 C.ar    1  UNL1        0.3497
      2 O          -2.5809   -0.0407    0.0309 O.2     1  UNL1       -0.2446
      3 N          -0.7011    1.1607    0.0368 N.ar    1  UNL1       -0.2789
      4 H          -1.2767    1.9835    0.0720 H       1  UNL1        0.1731
      5 C           0.6432    1.2135    0.0464 C.ar    1  UNL1        0.1955
      6 N           1.3542    0.1429    0.0499 N.ar    1  UNL1       -0.2046
      7 C           0.6779   -1.0428    0.0544 C.ar    1  UNL1        0.1249
      8 N          -0.6031   -1.1657    0.0426 N.ar    1  UNL1       -0.1815
      9 N           1.2185    2.4394    0.0430 N.pl3   1  UNL1       -0.3288
     10 H           1.2962   -1.9559    0.0664 H       1  UNL1        0.1050
     11 H           0.7238    3.1865   -0.4255 H       1  UNL1        0.1451
     12 H           2.2077    2.4106   -0.1848 H       1  UNL1        0.1451
@<TRIPOS>BOND
     1     1     2    2
     2     1     3   ar
     3     1     8   ar
     4     3     4    1
     5     3     5   ar
     6     5     6   ar
     7     5     9    1
     8     6     7   ar
     9     7     8   ar
    10     7    10    1
    11     9    11    1
    12     9    12    1
