REMARK  1 active torsions:
REMARK  status: ('A' for Active; 'I' for Inactive)
REMARK    1  A    between atoms: C_5  and  N_9 
ROOT
ATOM      1  C   UNL d   1      -1.353  -0.032   0.038  0.00  0.00     0.349 A 
ATOM      2  O   UNL d   1      -2.581  -0.041   0.031  0.00  0.00    -0.244 OA
ATOM      3  N   UNL d   1      -0.701   1.161   0.037  0.00  0.00    -0.282 N 
ATOM      4  H   UNL d   1      -1.277   1.984   0.072  0.00  0.00     0.173 HD
ATOM      5  C   UNL d   1       0.643   1.214   0.046  0.00  0.00     0.182 A 
ATOM      6  N   UNL d   1       1.354   0.143   0.050  0.00  0.00    -0.213 NA
ATOM      7  C   UNL d   1       0.678  -1.043   0.054  0.00  0.00     0.241 A 
ATOM      8  N   UNL d   1      -0.603  -1.166   0.043  0.00  0.00    -0.187 NA
ENDROOT
BRANCH   5   9
ATOM      9  N   UNL d   1       1.218   2.439   0.043  0.00  0.00    -0.272 NA
ATOM     10  H   UNL d   1       0.724   3.187  -0.425  0.00  0.00     0.127 HD
ATOM     11  H   UNL d   1       2.208   2.411  -0.185  0.00  0.00     0.127 HD
ENDBRANCH   5   9
TORSDOF 1
