@<TRIPOS>MOLECULE
3GOT_A2F_A_91
 15 16 0 0 0
SMALL
GASTEIGER

@<TRIPOS>ATOM
      1 F          -2.1390   -2.9410   -0.1574 F       1  UNL1       -0.1610
      2 C          -1.3024   -1.9001   -0.0669 C.ar    1  UNL1        0.3128
      3 N           0.0116   -2.2064   -0.1217 N.ar    1  UNL1       -0.1806
      4 C           0.7984   -1.1153   -0.0330 C.ar    1  UNL1        0.1853
      5 C           0.2862    0.1670    0.0466 C.ar    1  UNL1        0.1253
      6 C          -1.0731    0.4127    0.0729 C.ar    1  UNL1        0.1480
      7 N          -1.8796   -0.6736   -0.0456 N.ar    1  UNL1       -0.1852
      8 N          -1.5650    1.7176    0.1649 N.pl3   1  UNL1       -0.3413
      9 N           1.3777    0.9753    0.1073 N.ar    1  UNL1       -0.3404
     10 H           1.3525    1.9817    0.1800 H       1  UNL1        0.1669
     11 C           2.4807    0.1744    0.0535 C.ar    1  UNL1        0.0963
     12 N           2.1647   -1.0991   -0.0326 N.ar    1  UNL1       -0.2164
     13 H          -2.5549    1.7385   -0.0469 H       1  UNL1        0.1438
     14 H          -1.0563    2.3456   -0.4535 H       1  UNL1        0.1438
     15 H           3.4804    0.5799    0.0894 H       1  UNL1        0.1027
@<TRIPOS>BOND
     1     2     1    1
     2     3     2   ar
     3     4     3   ar
     4     5     4   ar
     5     6     5   ar
     6     7     6   ar
     7     7     2   ar
     8     8     6    1
     9     9     5   ar
    10     9    10    1
    11    11     9   ar
    12    12    11   ar
    13    12     4   ar
    14     8    13    1
    15     8    14    1
    16    11    15    1
