3GOT_A2F_A_91
  1228              3D

 15 16  0  0  0  0  0  0  0  0999 V2000
   -2.1390   -2.9410   -0.1574 F   0  0  0  0  0  0  0  0  0  0  0  0
   -1.3024   -1.9001   -0.0669 C   0  0  0  0  0  0  0  0  0  0  0  0
    0.0116   -2.2064   -0.1217 N   0  0  0  0  0  0  0  0  0  0  0  0
    0.7984   -1.1153   -0.0330 C   0  0  0  0  0  0  0  0  0  0  0  0
    0.2862    0.1670    0.0466 C   0  0  0  0  0  0  0  0  0  0  0  0
   -1.0731    0.4127    0.0729 C   0  0  0  0  0  0  0  0  0  0  0  0
   -1.8796   -0.6736   -0.0456 N   0  0  0  0  0  0  0  0  0  0  0  0
   -1.5650    1.7176    0.1649 N   0  0  0  0  0  0  0  0  0  0  0  0
    1.3777    0.9753    0.1073 N   0  0  0  0  0  0  0  0  0  0  0  0
    1.3525    1.9817    0.1800 H   0  0  0  0  0  0  0  0  0  0  0  0
    2.4807    0.1744    0.0535 C   0  0  0  0  0  0  0  0  0  0  0  0
    2.1647   -1.0991   -0.0326 N   0  0  0  0  0  0  0  0  0  0  0  0
   -2.5549    1.7385   -0.0469 H   0  0  0  0  0  0  0  0  0  0  0  0
   -1.0563    2.3456   -0.4535 H   0  0  0  0  0  0  0  0  0  0  0  0
    3.4804    0.5799    0.0894 H   0  0  0  0  0  0  0  0  0  0  0  0
  2  1  1  0  0  0  0
  3  2  2  0  0  0  0
  4  3  1  0  0  0  0
  5  4  2  0  0  0  0
  6  5  1  0  0  0  0
  7  6  2  0  0  0  0
  7  2  1  0  0  0  0
  8  6  1  0  0  0  0
  9  5  1  0  0  0  0
  9 10  1  0  0  0  0
 11  9  1  0  0  0  0
 12 11  2  0  0  0  0
 12  4  1  0  0  0  0
  8 13  1  0  0  0  0
  8 14  1  0  0  0  0
 11 15  1  0  0  0  0
M  END
>  <energy>
20.204684254586102

$$$$
