@<TRIPOS>MOLECULE
2YIE-RNA-clean-dockprep-aligned.pdb
3591 3876 111 0 0
NUCLEIC_ACID
NO_CHARGES


@<TRIPOS>ATOM
      1 PA         38.5280  -24.6870    6.7470 P.3       1 GTP    0.0000
      2 PB         38.4420  -24.1980    9.4940 P.3       1 GTP    0.0000
      3 C5'        39.0810  -24.1680    4.3000 C.3       1 GTP    0.0000
      4 O5'        39.4090  -24.0030    5.5920 O.3       1 GTP    0.0000
      5 C4'        40.1050  -24.7430    3.4190 C.3       1 GTP    0.0000
      6 O4'        41.3580  -24.6780    4.0490 O.3       1 GTP    0.0000
      7 C3'        39.8620  -26.1890    3.2310 C.3       1 GTP    0.0000
      8 O3'        38.9470  -26.4240    2.2000 O.3       1 GTP    0.0000
      9 C2'        41.1360  -26.6670    2.8890 C.3       1 GTP    0.0000
     10 O2'        41.3920  -26.3930    1.5610 O.3       1 GTP    0.0000
     11 C1'        42.0430  -25.8570    3.7570 C.3       1 GTP    0.0000
     12 N1         44.0620  -30.1570    5.7890 N.ar      1 GTP    0.0000
     13 O1A        37.1450  -24.0500    6.7910 O.co2     1 GTP    0.0000
     14 O1B        37.2980  -25.1720    9.6120 O.co2     1 GTP    0.0000
     15 C2         43.9460  -29.8000    4.4930 C.ar      1 GTP    0.0000
     16 N2         44.4170  -30.6620    3.4900 N.pl3     1 GTP    0.0000
     17 O2A        38.3940  -26.1370    6.4780 O.co2     1 GTP    0.0000
     18 O2B        37.9080  -22.7990    9.4760 O.co2     1 GTP    0.0000
     19 N3         43.3980  -28.6320    4.1430 N.ar      1 GTP    0.0000
     20 O3A        39.2660  -24.4780    8.1060 O.3       1 GTP    0.0000
     21 O3B        39.4010  -24.3670   10.7020 O.co2     1 GTP    0.0000
     22 C4         42.9440  -27.7700    5.0800 C.ar      1 GTP    0.0000
     23 C5         43.0530  -28.1120    6.4340 C.ar      1 GTP    0.0000
     24 C6         43.6290  -29.3420    6.7750 C.ar      1 GTP    0.0000
     25 O6         43.7480  -29.7210    8.1010 O.3       1 GTP    0.0000
     26 N7         42.5300  -27.0830    7.1420 N.ar      1 GTP    0.0000
     27 C8         42.1120  -26.1350    6.2770 C.ar      1 GTP    0.0000
     28 N9         42.3690  -26.5480    5.0200 N.ar      1 GTP    0.0000
     29 HN21       44.3360  -30.3980    2.5180 H         1 GTP    0.0000
     30 HN22       44.8370  -31.5460    3.7390 H         1 GTP    0.0000
     31 HO2'       42.2640  -26.7210    1.3280 H         1 GTP    0.0000
     32 H6         43.3400  -29.0570    8.6610 H         1 GTP    0.0000
     33 H8         41.6480  -25.1980    6.5480 H         1 GTP    0.0000
     34 H1'        42.9600  -25.6250    3.2160 H         1 GTP    0.0000
     35 H2'        41.2310  -27.7320    3.1000 H         1 GTP    0.0000
     36 H3'        39.5190  -26.6440    4.1600 H         1 GTP    0.0000
     37 H4'        40.1260  -24.2260    2.4600 H         1 GTP    0.0000
     38 H5'        38.2100  -24.8230    4.2630 H         1 GTP    0.0000
     39 H5''       38.7930  -23.1980    3.8960 H         1 GTP    0.0000
     40 P          37.8220  -27.5590    2.3700 P.3       2   G    0.0000
     41 C5'        39.0200  -29.0300    0.5670 C.3       2   G    0.0000
     42 O5'        38.5780  -28.8770    1.9060 O.3       2   G    0.0000
     43 C4'        39.7940  -30.3090    0.3890 C.3       2   G    0.0000
     44 O4'        41.0250  -30.2480    1.1590 O.3       2   G    0.0000
     45 C3'        39.1160  -31.5710    0.8970 C.3       2   G    0.0000
     46 O3'        38.1450  -32.0870    0.0040 O.3       2   G    0.0000
     47 C2'        40.2970  -32.4990    1.1280 C.3       2   G    0.0000
     48 O2'        40.7960  -32.9910   -0.1070 O.3       2   G    0.0000
     49 C1'        41.3150  -31.5200    1.7000 C.3       2   G    0.0000
     50 N1         42.2220  -33.8910    6.0870 N.am      2   G    0.0000
     51 C2         42.4800  -34.2990    4.7980 C.2       2   G    0.0000
     52 N2         43.0580  -35.5030    4.6530 N.pl3     2   G    0.0000
     53 N3         42.1900  -33.5750    3.7280 N.2       2   G    0.0000
     54 C4         41.6180  -32.3970    4.0550 C.ar      2   G    0.0000
     55 C5         41.3160  -31.8950    5.3040 C.ar      2   G    0.0000
     56 C6         41.6300  -32.6810    6.4460 C.2       2   G    0.0000
     57 O6         41.4440  -32.4180    7.6420 O.2       2   G    0.0000
     58 N7         40.7270  -30.6390    5.2000 N.ar      2   G    0.0000
     59 C8         40.6830  -30.4100    3.9150 C.ar      2   G    0.0000
     60 N9         41.2120  -31.4340    3.1670 N.ar      2   G    0.0000
     61 OP1        36.7310  -27.2410    1.4170 O.co2     2   G    0.0000
     62 OP2        37.5040  -27.6460    3.8150 O.co2     2   G    0.0000
     63 HO2'       40.1670  -33.6100   -0.4830 H         2   G    0.0000
     64 H1         42.4820  -34.5200    6.8330 H         2   G    0.0000
     65 H8         40.2720  -29.5090    3.4850 H         2   G    0.0000
     66 H1'        42.3220  -31.8240    1.4160 H         2   G    0.0000
     67 H2'        40.0600  -33.3020    1.8260 H         2   G    0.0000
     68 H21        43.2800  -36.0580    5.4670 H         2   G    0.0000
     69 H3'        38.6400  -31.3580    1.8540 H         2   G    0.0000
     70 H22        43.2700  -35.8530    3.7290 H         2   G    0.0000
     71 H4'        40.0390  -30.4350   -0.6650 H         2   G    0.0000
     72 H5'        38.1530  -29.0460   -0.0930 H         2   G    0.0000
     73 H5''       39.6580  -28.1870    0.3020 H         2   G    0.0000
     74 P          36.7530  -32.6590    0.5730 P.3       3   A    0.0000
     75 C5'        37.7360  -35.0920    0.4890 C.3       3   A    0.0000
     76 O5'        37.1850  -34.0320    1.2570 O.3       3   A    0.0000
     77 C4'        38.2420  -36.2080    1.3690 C.3       3   A    0.0000
     78 O4'        39.3050  -35.7130    2.2260 O.3       3   A    0.0000
     79 C3'        37.2300  -36.8020    2.3370 C.3       3   A    0.0000
     80 O3'        36.3820  -37.7630    1.7300 O.3       3   A    0.0000
     81 C2'        38.1150  -37.3700    3.4380 C.3       3   A    0.0000
     82 O2'        38.6930  -38.6040    3.0350 O.3       3   A    0.0000
     83 C1'        39.2230  -36.3190    3.4990 C.3       3   A    0.0000
     84 N1         39.0330  -35.0790    8.5060 N.ar      3   A    0.0000
     85 C2         39.3600  -36.2150    7.8740 C.ar      3   A    0.0000
     86 N3         39.3890  -36.4730    6.5690 N.ar      3   A    0.0000
     87 C4         39.0290  -35.3850    5.8650 C.ar      3   A    0.0000
     88 C5         38.6650  -34.1480    6.3720 C.ar      3   A    0.0000
     89 C6         38.6730  -34.0020    7.7700 C.ar      3   A    0.0000
     90 N6         38.3460  -32.8680    8.3990 N.pl3     3   A    0.0000
     91 N7         38.3540  -33.2650    5.3490 N.ar      3   A    0.0000
     92 C8         38.5330  -33.9770    4.2630 C.ar      3   A    0.0000
     93 N9         38.9370  -35.2710    4.4990 N.ar      3   A    0.0000
     94 OP1        36.2800  -31.7060    1.6080 O.co2     3   A    0.0000
     95 OP2        35.8820  -32.9290   -0.5970 O.co2     3   A    0.0000
     96 HO2'       38.0100  -39.2780    2.9910 H         3   A    0.0000
     97 H2         39.6400  -37.0370    8.5150 H         3   A    0.0000
     98 H8         38.3770  -33.5830    3.2700 H         3   A    0.0000
     99 H1'        40.1720  -36.8010    3.7360 H         3   A    0.0000
    100 H2'        37.5830  -37.4580    4.3860 H         3   A    0.0000
    101 H3'        36.6200  -35.9990    2.7510 H         3   A    0.0000
    102 H4'        38.6370  -37.0040    0.7390 H         3   A    0.0000
    103 H5'        36.9660  -35.4850   -0.1750 H         3   A    0.0000
    104 H61        37.8280  -33.2210    9.1910 H         3   A    0.0000
    105 H62        38.5590  -31.9130    8.1480 H         3   A    0.0000
    106 H5''       38.5610  -34.7070   -0.1100 H         3   A    0.0000
    107 P          34.8110  -37.7940    2.0790 P.3       4   U    0.0000
    108 C5'        35.4480  -40.0200    3.3070 C.3       4   U    0.0000
    109 O5'        34.7490  -38.7850    3.3230 O.3       4   U    0.0000
    110 C4'        35.7040  -40.5240    4.7040 C.3       4   U    0.0000
    111 O4'        36.7120  -39.6980    5.3480 O.3       4   U    0.0000
    112 C3'        34.5240  -40.4630    5.6580 C.3       4   U    0.0000
    113 O3'        33.6040  -41.5260    5.4840 O.3       4   U    0.0000
    114 C2'        35.2080  -40.4540    7.0170 C.3       4   U    0.0000
    115 O2'        35.6820  -41.7510    7.3480 O.3       4   U    0.0000
    116 C1'        36.4130  -39.5630    6.7250 C.3       4   U    0.0000
    117 N1         36.1260  -38.1360    7.0070 N.am      4   U    0.0000
    118 C2         36.2220  -37.6900    8.3160 C.2       4   U    0.0000
    119 O2         36.5350  -38.4150    9.2450 O.2       4   U    0.0000
    120 N3         35.9330  -36.3570    8.5000 N.am      4   U    0.0000
    121 C4         35.5680  -35.4450    7.5300 C.2       4   U    0.0000
    122 O4         35.3390  -34.2750    7.8470 O.2       4   U    0.0000
    123 C5         35.4920  -35.9810    6.2040 C.2       4   U    0.0000
    124 C6         35.7640  -37.2740    5.9960 C.2       4   U    0.0000
    125 OP1        34.1160  -38.3980    0.9160 O.co2     4   U    0.0000
    126 OP2        34.4260  -36.4260    2.5040 O.co2     4   U    0.0000
    127 HO2'       34.9370  -42.3260    7.5360 H         4   U    0.0000
    128 H3         35.9950  -36.0090    9.4460 H         4   U    0.0000
    129 H5         35.2150  -35.3450    5.3770 H         4   U    0.0000
    130 H6         35.6980  -37.6590    4.9890 H         4   U    0.0000
    131 H1'        37.2660  -39.8910    7.3200 H         4   U    0.0000
    132 H2'        34.5690  -40.0380    7.7960 H         4   U    0.0000
    133 H3'        34.0020  -39.5170    5.5180 H         4   U    0.0000
    134 H4'        36.0670  -41.5500    4.6500 H         4   U    0.0000
    135 H5'        34.8540  -40.7570    2.7670 H         4   U    0.0000
    136 H5''       36.4010  -39.8850    2.7950 H         4   U    0.0000
    137 P          32.0250  -41.2570    5.6330 P.3       5   C    0.0000
    138 C5'        32.0520  -42.2270    8.0700 C.3       5   C    0.0000
    139 O5'        31.8380  -41.1150    7.2110 O.3       5   C    0.0000
    140 C4'        32.1480  -41.8090    9.5180 C.3       5   C    0.0000
    141 O4'        33.2070  -40.8300    9.6820 O.3       5   C    0.0000
    142 C3'        30.9270  -41.1240   10.1070 C.3       5   C    0.0000
    143 O3'        29.8990  -42.0290   10.4690 O.3       5   C    0.0000
    144 C2'        31.5180  -40.3650   11.2860 C.3       5   C    0.0000
    145 O2'        31.7670  -41.2410   12.3750 O.3       5   C    0.0000
    146 C1'        32.8590  -39.9190   10.7080 C.3       5   C    0.0000
    147 N1         32.7790  -38.5670   10.1280 N.am      5   C    0.0000
    148 C2         32.9160  -37.4740   10.9870 C.2       5   C    0.0000
    149 O2         33.1060  -37.6890   12.1930 O.2       5   C    0.0000
    150 N3         32.8370  -36.2210   10.4790 N.2       5   C    0.0000
    151 C4         32.6270  -36.0480    9.1710 C.2       5   C    0.0000
    152 N4         32.5550  -34.7990    8.7070 N.pl3     5   C    0.0000
    153 C5         32.4800  -37.1490    8.2750 C.2       5   C    0.0000
    154 C6         32.5600  -38.3820    8.7910 C.2       5   C    0.0000
    155 OP1        31.7390  -39.9610    4.9710 O.co2     5   C    0.0000
    156 OP2        31.3260  -42.4720    5.1470 O.co2     5   C    0.0000
    157 HO2'       31.4580  -40.8360   13.1890 H         5   C    0.0000
    158 H5         32.3100  -36.9930    7.2200 H         5   C    0.0000
    159 H6         32.4510  -39.2400    8.1450 H         5   C    0.0000
    160 H1'        33.6200  -39.9390   11.4880 H         5   C    0.0000
    161 H2'        30.8980  -39.5180   11.5780 H         5   C    0.0000
    162 H3'        30.5350  -40.4090    9.3830 H         5   C    0.0000
    163 H4'        32.3840  -42.6850   10.1210 H         5   C    0.0000
    164 H41        32.6590  -34.0180    9.3400 H         5   C    0.0000
    165 H5'        32.9810  -42.7200    7.7830 H         5   C    0.0000
    166 H42        32.3970  -34.6330    7.7230 H         5   C    0.0000
    167 H5''       31.2260  -42.9290    7.9560 H         5   C    0.0000
    168 P          28.3960  -41.4990   10.6920 P.3       6   U    0.0000
    169 C5'        28.7290  -41.5670   13.2930 C.3       6   U    0.0000
    170 O5'        28.4740  -40.8040   12.1220 O.3       6   U    0.0000
    171 C4'        28.8010  -40.6900   14.5150 C.3       6   U    0.0000
    172 O4'        29.9280  -39.7810   14.3970 O.3       6   U    0.0000
    173 C3'        27.6090  -39.7740   14.7440 C.3       6   U    0.0000
    174 O3'        26.5140  -40.4230   15.3630 O.3       6   U    0.0000
    175 C2'        28.2100  -38.6540   15.5780 C.3       6   U    0.0000
    176 O2'        28.3850  -39.0700   16.9250 O.3       6   U    0.0000
    177 C1'        29.5880  -38.5200   14.9320 C.3       6   U    0.0000
    178 N1         29.5850  -37.5330   13.8300 N.am      6   U    0.0000
    179 C2         29.8030  -36.2030   14.1340 C.2       6   U    0.0000
    180 O2         29.9960  -35.8090   15.2720 O.2       6   U    0.0000
    181 N3         29.7850  -35.3470   13.0560 N.am      6   U    0.0000
    182 C4         29.5750  -35.6830   11.7300 C.2       6   U    0.0000
    183 O4         29.5860  -34.8030   10.8630 O.2       6   U    0.0000
    184 C5         29.3570  -37.0790   11.5000 C.2       6   U    0.0000
    185 C6         29.3710  -37.9320   12.5310 C.2       6   U    0.0000
    186 OP1        28.1330  -40.4760    9.6470 O.co2     6   U    0.0000
    187 OP2        27.5190  -42.6930   10.7570 O.co2     6   U    0.0000
    188 HO2'       27.5270  -39.1590   17.3470 H         6   U    0.0000
    189 H3         29.9400  -34.3690   13.2540 H         6   U    0.0000
    190 H5         29.1820  -37.4430   10.4990 H         6   U    0.0000
    191 H6         29.2080  -38.9810   12.3350 H         6   U    0.0000
    192 H1'        30.3210  -38.2290   15.6850 H         6   U    0.0000
    193 H2'        27.6320  -37.7320   15.5050 H         6   U    0.0000
    194 H3'        27.2850  -39.3670   13.7860 H         6   U    0.0000
    195 H4'        28.9410  -41.3180   15.3950 H         6   U    0.0000
    196 H5'        27.9280  -42.2940   13.4250 H         6   U    0.0000
    197 H5''       29.6760  -42.0960   13.1770 H         6   U    0.0000
    198 P          25.0100  -40.0530   14.9320 P.3       7   U    0.0000
    199 C5'        24.5930  -38.6920   17.1370 C.3       7   U    0.0000
    200 O5'        24.7390  -38.6950   15.7230 O.3       7   U    0.0000
    201 C4'        24.7890  -37.3120   17.7190 C.3       7   U    0.0000
    202 O4'        26.0440  -36.7510   17.2520 O.3       7   U    0.0000
    203 C3'        23.7620  -36.2620   17.3260 C.3       7   U    0.0000
    204 O3'        22.5490  -36.3630   18.0490 O.3       7   U    0.0000
    205 C2'        24.5160  -34.9670   17.5800 C.3       7   U    0.0000
    206 O2'        24.5830  -34.6880   18.9710 O.3       7   U    0.0000
    207 C1'        25.9130  -35.3500   17.0990 C.3       7   U    0.0000
    208 N1         26.1120  -35.0090   15.6740 N.am      7   U    0.0000
    209 C2         26.3790  -33.6820   15.3690 C.2       7   U    0.0000
    210 O2         26.4600  -32.8060   16.2200 O.2       7   U    0.0000
    211 N3         26.5500  -33.4180   14.0300 N.am      7   U    0.0000
    212 C4         26.4810  -34.3270   12.9920 C.2       7   U    0.0000
    213 O4         26.6610  -33.9370   11.8350 O.2       7   U    0.0000
    214 C5         26.1980  -35.6760   13.3910 C.2       7   U    0.0000
    215 C6         26.0250  -35.9640   14.6880 C.2       7   U    0.0000
    216 OP1        24.1300  -41.1280   15.4520 O.co2     7   U    0.0000
    217 OP2        25.0260  -39.7900   13.4720 O.co2     7   U    0.0000
    218 HO2'       25.1940  -33.9630   19.1230 H         7   U    0.0000
    219 H3         26.7470  -32.4590   13.7790 H         7   U    0.0000
    220 H5         26.1240  -36.4560   12.6480 H         7   U    0.0000
    221 H6         25.8090  -36.9850   14.9690 H         7   U    0.0000
    222 H1'        26.6630  -34.8430   17.7070 H         7   U    0.0000
    223 H2'        24.1020  -34.1330   17.0140 H         7   U    0.0000
    224 H3'        23.5510  -36.3500   16.2610 H         7   U    0.0000
    225 H4'        24.8180  -37.3880   18.8060 H         7   U    0.0000
    226 H5'        23.5920  -39.0420   17.3890 H         7   U    0.0000
    227 H5''       25.3270  -39.3700   17.5730 H         7   U    0.0000
    228 P          21.1950  -35.7560   17.4300 P.3       8   C    0.0000
    229 C5'        21.5350  -33.3460   18.4000 C.3       8   C    0.0000
    230 O5'        21.5390  -34.2090   17.2730 O.3       8   C    0.0000
    231 C4'        21.7140  -31.9040   17.9970 C.3       8   C    0.0000
    232 O4'        22.9560  -31.7520   17.2570 O.3       8   C    0.0000
    233 C3'        20.6630  -31.3340   17.0570 C.3       8   C    0.0000
    234 O3'        19.4640  -30.9570   17.7120 O.3       8   C    0.0000
    235 C2'        21.4030  -30.1710   16.4170 C.3       8   C    0.0000
    236 O2'        21.4990  -29.0800   17.3200 O.3       8   C    0.0000
    237 C1'        22.7930  -30.7760   16.2450 C.3       8   C    0.0000
    238 N1         22.9350  -31.4360   14.9320 N.am      8   C    0.0000
    239 C2         23.1030  -30.6320   13.7950 C.2       8   C    0.0000
    240 O2         23.1450  -29.3970   13.9340 O.2       8   C    0.0000
    241 N3         23.2180  -31.2270   12.5800 N.2       8   C    0.0000
    242 C4         23.1630  -32.5610   12.4820 C.2       8   C    0.0000
    243 N4         23.2790  -33.1140   11.2700 N.pl3     8   C    0.0000
    244 C5         22.9860  -33.3950   13.6270 C.2       8   C    0.0000
    245 C6         22.8760  -32.7970   14.8190 C.2       8   C    0.0000
    246 OP1        21.0090  -36.3710   16.0910 O.co2     8   C    0.0000
    247 OP2        20.1330  -35.9340   18.4500 O.co2     8   C    0.0000
    248 HO2'       20.6310  -28.6860   17.4410 H         8   C    0.0000
    249 H5         22.9430  -34.4700   13.5340 H         8   C    0.0000
    250 H6         22.7370  -33.3990   15.7050 H         8   C    0.0000
    251 H1'        23.5510  -30.0000   16.3530 H         8   C    0.0000
    252 H2'        20.9620  -29.8770   15.4650 H         8   C    0.0000
    253 H3'        20.4320  -32.0730   16.2900 H         8   C    0.0000
    254 H4'        21.7590  -31.2880   18.8950 H         8   C    0.0000
    255 H41        23.4040  -32.5270   10.4580 H         8   C    0.0000
    256 H5'        20.5840  -33.4510   18.9230 H         8   C    0.0000
    257 H42        23.2410  -34.1180   11.1670 H         8   C    0.0000
    258 H5''       22.3440  -33.6320   19.0720 H         8   C    0.0000
    259 P          18.0490  -31.1230   16.9640 P.3       9   G    0.0000
    260 C5'        18.3800  -28.7740   15.8510 C.3       9   G    0.0000
    261 O5'        18.2030  -30.1730   15.6950 O.3       9   G    0.0000
    262 C4'        18.6900  -28.1010   14.5380 C.3       9   G    0.0000
    263 O4'        19.9170  -28.6380   13.9830 O.3       9   G    0.0000
    264 C3'        17.6760  -28.3050   13.4280 C.3       9   G    0.0000
    265 O3'        16.5380  -27.4730   13.5580 O.3       9   G    0.0000
    266 C2'        18.5020  -28.0240   12.1820 C.3       9   G    0.0000
    267 O2'        18.6960  -26.6290   12.0130 O.3       9   G    0.0000
    268 C1'        19.8380  -28.6510   12.5720 C.3       9   G    0.0000
    269 N1         21.0530  -31.7160    8.7080 N.am      9   G    0.0000
    270 C2         21.1100  -30.3470    8.7870 C.2       9   G    0.0000
    271 N2         21.5460  -29.7080    7.6950 N.pl3     9   G    0.0000
    272 N3         20.7650  -29.6560    9.8580 N.2       9   G    0.0000
    273 C4         20.3550  -30.4570   10.8670 C.ar      9   G    0.0000
    274 C5         20.2590  -31.8330   10.8920 C.ar      9   G    0.0000
    275 C6         20.6310  -32.5650    9.7310 C.2       9   G    0.0000
    276 O6         20.6190  -33.7960    9.5590 O.2       9   G    0.0000
    277 N7         19.7890  -32.2750   12.1250 N.ar      9   G    0.0000
    278 C8         19.6090  -31.1790   12.8110 C.ar      9   G    0.0000
    279 N9         19.9360  -30.0440   12.1090 N.ar      9   G    0.0000
    280 OP1        17.0080  -30.5840   17.8720 O.co2     9   G    0.0000
    281 OP2        17.9490  -32.5360   16.5260 O.co2     9   G    0.0000
    282 HO2'       17.8600  -26.1720   12.1350 H         9   G    0.0000
    283 H1         21.3400  -32.1420    7.8390 H         9   G    0.0000
    284 H8         19.2400  -31.1650   13.8260 H         9   G    0.0000
    285 H1'        20.6560  -28.0650   12.1520 H         9   G    0.0000
    286 H2'        18.0760  -28.4890   11.2930 H         9   G    0.0000
    287 H21        21.8100  -30.2330    6.8740 H         9   G    0.0000
    288 H3'        17.3580  -29.3480   13.4190 H         9   G    0.0000
    289 H22        21.6100  -28.7000    7.6920 H         9   G    0.0000
    290 H4'        18.8160  -27.0320   14.7090 H         9   G    0.0000
    291 H5'        17.4650  -28.3460   16.2600 H         9   G    0.0000
    292 H5''       19.2000  -28.5930   16.5460 H         9   G    0.0000
    293 P          15.0650  -28.0800   13.3460 P.3      10   G    0.0000
    294 C5'        14.1780  -25.6240   13.5630 C.3      10   G    0.0000
    295 O5'        14.1390  -26.9740   14.0120 O.3      10   G    0.0000
    296 C4'        12.8190  -24.9820   13.6350 C.3      10   G    0.0000
    297 O4'        12.6360  -24.1270   12.4740 O.3      10   G    0.0000
    298 C3'        11.6460  -25.9590   13.6240 C.3      10   G    0.0000
    299 O3'        10.5740  -25.4070   14.3800 O.3      10   G    0.0000
    300 C2'        11.2640  -25.9860   12.1490 C.3      10   G    0.0000
    301 O2'         9.9430  -26.4100   11.8870 O.3      10   G    0.0000
    302 C1'        11.4760  -24.5280   11.7770 C.3      10   G    0.0000
    303 N1         11.3960  -21.0050    8.1920 N.am     10   G    0.0000
    304 C2         11.1550  -20.9020    9.5370 C.2      10   G    0.0000
    305 N2         10.8470  -19.6850    9.9930 N.pl3    10   G    0.0000
    306 N3         11.2140  -21.9200   10.3760 N.2      10   G    0.0000
    307 C4         11.5370  -23.0690    9.7440 C.ar     10   G    0.0000
    308 C5         11.7970  -23.2850    8.4090 C.ar     10   G    0.0000
    309 C6         11.7300  -22.1770    7.5230 C.2      10   G    0.0000
    310 O6         11.9260  -22.1410    6.3020 O.2      10   G    0.0000
    311 N7         12.0940  -24.6250    8.1790 N.ar     10   G    0.0000
    312 C8         12.0050  -25.1860    9.3580 C.ar     10   G    0.0000
    313 N9         11.6820  -24.2920   10.3490 N.ar     10   G    0.0000
    314 OP1        14.9880  -29.3370   14.1310 O.co2    10   G    0.0000
    315 OP2        14.8210  -28.1340   11.8820 O.co2    10   G    0.0000
    316 HO2'        9.8480  -27.3330   12.1350 H        10   G    0.0000
    317 H1         11.3260  -20.1600    7.6430 H        10   G    0.0000
    318 H8         12.1670  -26.2400    9.5330 H        10   G    0.0000
    319 H1'        10.6250  -23.9390   12.1220 H        10   G    0.0000
    320 H2'        11.9660  -26.6110   11.5990 H        10   G    0.0000
    321 H21        10.8010  -18.9030    9.3550 H        10   G    0.0000
    322 H3'        11.9340  -26.9460   13.9880 H        10   G    0.0000
    323 H22        10.6600  -19.5460   10.9760 H        10   G    0.0000
    324 H4'        12.7620  -24.3710   14.5370 H        10   G    0.0000
    325 H5'        14.5250  -25.6030   12.5300 H        10   G    0.0000
    326 H5''       14.8730  -25.0600   14.1860 H        10   G    0.0000
    327 P           9.8690  -26.2610   15.5470 P.3      11   G    0.0000
    328 C5'         9.7340  -24.0780   16.9940 C.3      11   G    0.0000
    329 O5'         9.0570  -25.1450   16.3440 O.3      11   G    0.0000
    330 C4'         9.0570  -22.7560   16.7320 C.3      11   G    0.0000
    331 O4'         9.4440  -22.2520   15.4350 O.3      11   G    0.0000
    332 C3'         7.5370  -22.7850   16.7000 C.3      11   G    0.0000
    333 O3'         6.9830  -22.6660   17.9970 O.3      11   G    0.0000
    334 C2'         7.1760  -21.6190   15.7860 C.3      11   G    0.0000
    335 O2'         7.1260  -20.4090   16.5260 O.3      11   G    0.0000
    336 C1'         8.3780  -21.5500   14.8440 C.3      11   G    0.0000
    337 N1          7.8440  -20.5510    9.8950 N.am     11   G    0.0000
    338 C2          8.0210  -19.7010   10.9530 C.2      11   G    0.0000
    339 N2          8.0770  -18.3980   10.6620 N.pl3    11   G    0.0000
    340 N3          8.1380  -20.0930   12.2070 N.2      11   G    0.0000
    341 C4          8.0620  -21.4320   12.3310 C.ar     11   G    0.0000
    342 C5          7.8850  -22.3720   11.3450 C.ar     11   G    0.0000
    343 C6          7.7640  -21.9370   10.0020 C.2      11   G    0.0000
    344 O6          7.6030  -22.6240    8.9870 O.2      11   G    0.0000
    345 N7          7.8560  -23.6460   11.8820 N.ar     11   G    0.0000
    346 C8          8.0160  -23.4550   13.1640 C.ar     11   G    0.0000
    347 N9          8.1200  -22.1310   13.5110 N.ar     11   G    0.0000
    348 OP1        10.9480  -26.8090   16.4070 O.co2    11   G    0.0000
    349 OP2         8.9260  -27.2080   14.8940 O.co2    11   G    0.0000
    350 HO2'        6.2750  -20.3350   16.9630 H        11   G    0.0000
    351 H1          7.7670  -20.1450    8.9740 H        11   G    0.0000
    352 H8          8.0620  -24.2610   13.8820 H        11   G    0.0000
    353 H1'         8.6690  -20.5070   14.7220 H        11   G    0.0000
    354 H2'         6.2470  -21.8010   15.2450 H        11   G    0.0000
    355 H21         7.9890  -18.0900    9.7040 H        11   G    0.0000
    356 H3'         7.2020  -23.7180   16.2470 H        11   G    0.0000
    357 H22         8.2080  -17.7210   11.4000 H        11   G    0.0000
    358 H4'         9.3760  -22.0440   17.4920 H        11   G    0.0000
    359 H5'        10.7590  -24.0300   16.6250 H        11   G    0.0000
    360 H5''        9.7490  -24.2650   18.0680 H        11   G    0.0000
    361 P           5.6970  -23.5240   18.4190 P.3      12   G    0.0000
    362 C5'         4.5160  -21.1810   18.4850 C.3      12   G    0.0000
    363 O5'         4.4920  -22.5400   18.0740 O.3      12   G    0.0000
    364 C4'         3.5990  -20.3390   17.6360 C.3      12   G    0.0000
    365 O4'         4.1320  -20.2470   16.2960 O.3      12   G    0.0000
    366 C3'         2.1890  -20.8790   17.4620 C.3      12   G    0.0000
    367 O3'         1.3360  -20.4690   18.5080 O.3      12   G    0.0000
    368 C2'         1.7610  -20.3490   16.0990 C.3      12   G    0.0000
    369 O2'         1.2170  -19.0460   16.2260 O.3      12   G    0.0000
    370 C1'         3.0920  -20.2510   15.3500 C.3      12   G    0.0000
    371 N1          4.4890  -21.4720   10.6480 N.am     12   G    0.0000
    372 C2          4.3150  -20.2430   11.2310 C.2      12   G    0.0000
    373 N2          4.5660  -19.1800   10.4510 N.pl3    12   G    0.0000
    374 N3          3.9350  -20.0630   12.4830 N.2      12   G    0.0000
    375 C4          3.7410  -21.2360   13.1180 C.ar     12   G    0.0000
    376 C5          3.8840  -22.5180   12.6310 C.ar     12   G    0.0000
    377 C6          4.2990  -22.6950   11.2810 C.2      12   G    0.0000
    378 O6          4.4900  -23.7420   10.6460 O.2      12   G    0.0000
    379 N7          3.5770  -23.4500   13.6150 N.ar     12   G    0.0000
    380 C8          3.2650  -22.7260   14.6610 C.ar     12   G    0.0000
    381 N9          3.3240  -21.3740   14.4220 N.ar     12   G    0.0000
    382 OP1         5.7790  -23.7310   19.8870 O.co2    12   G    0.0000
    383 OP2         5.6510  -24.7160   17.5320 O.co2    12   G    0.0000
    384 HO2'        0.2850  -19.1080   16.4480 H        12   G    0.0000
    385 H1          4.7800  -21.4900    9.6810 H        12   G    0.0000
    386 H8          2.9900  -23.1490   15.6160 H        12   G    0.0000
    387 H1'         3.1170  -19.3160   14.7900 H        12   G    0.0000
    388 H2'         1.0680  -21.0290   15.6030 H        12   G    0.0000
    389 H21         4.8600  -19.3140    9.4940 H        12   G    0.0000
    390 H3'         2.2220  -21.9680   17.4300 H        12   G    0.0000
    391 H22         4.4600  -18.2460   10.8210 H        12   G    0.0000
    392 H4'         3.5430  -19.3380   18.0630 H        12   G    0.0000
    393 H5'         4.1950  -21.1180   19.5250 H        12   G    0.0000
    394 H5''        5.5330  -20.7990   18.4010 H        12   G    0.0000
    395 P           0.0380  -21.3290   18.8820 P.3      13   C    0.0000
    396 C5'        -2.3610  -21.3240   17.8550 C.3      13   C    0.0000
    397 O5'        -1.0460  -20.7990   17.8500 O.3      13   C    0.0000
    398 C4'        -3.3840  -20.2400   17.6630 C.3      13   C    0.0000
    399 O4'        -3.2530  -19.6790   16.3470 O.3      13   C    0.0000
    400 C3'        -4.8350  -20.6730   17.7730 C.3      13   C    0.0000
    401 O3'        -5.2910  -20.6020   19.1140 O.3      13   C    0.0000
    402 C2'        -5.5920  -19.7290   16.8200 C.3      13   C    0.0000
    403 O2'        -6.1770  -18.6510   17.5320 O.3      13   C    0.0000
    404 C1'        -4.4850  -19.1710   15.9200 C.3      13   C    0.0000
    405 N1         -4.6590  -19.4890   14.4870 N.am     13   C    0.0000
    406 C2         -5.4810  -18.6730   13.7150 C.2      13   C    0.0000
    407 O2         -6.0990  -17.7560   14.2710 O.2      13   C    0.0000
    408 N3         -5.6080  -18.9240   12.3920 N.2      13   C    0.0000
    409 C4         -4.9250  -19.9230   11.8340 C.2      13   C    0.0000
    410 N4         -5.0750  -20.1370   10.5240 N.pl3    13   C    0.0000
    411 C5         -4.0570  -20.7530   12.5960 C.2      13   C    0.0000
    412 C6         -3.9430  -20.4920   13.9020 C.2      13   C    0.0000
    413 OP1        -0.3560  -20.9440   20.2620 O.co2    13   C    0.0000
    414 OP2         0.3580  -22.7590   18.5940 O.co2    13   C    0.0000
    415 HO2'       -6.9340  -18.3180   17.0440 H        13   C    0.0000
    416 H5         -3.5100  -21.5630   12.1360 H        13   C    0.0000
    417 H6         -3.2710  -21.0850   14.5050 H        13   C    0.0000
    418 H1'        -4.4660  -18.0860   16.0300 H        13   C    0.0000
    419 H2'        -6.3380  -20.2710   16.2390 H        13   C    0.0000
    420 H3'        -4.9320  -21.6980   17.4150 H        13   C    0.0000
    421 H4'        -3.1990  -19.4540   18.3960 H        13   C    0.0000
    422 H41        -5.6920  -19.5490    9.9830 H        13   C    0.0000
    423 H5'        -2.4570  -22.0490   17.0470 H        13   C    0.0000
    424 H42        -4.5700  -20.8880   10.0740 H        13   C    0.0000
    425 H5''       -2.5440  -21.8240   18.8070 H        13   C    0.0000
    426 P          -6.3520  -21.6540   19.6890 P.3      14   A    0.0000
    427 C5'        -5.2100  -21.2490   22.0090 C.3      14   A    0.0000
    428 O5'        -6.3990  -21.2880   21.2370 O.3      14   A    0.0000
    429 C4'        -5.2570  -20.1610   23.0530 C.3      14   A    0.0000
    430 O4'        -4.6430  -18.9500   22.5430 O.3      14   A    0.0000
    431 C3'        -6.6370  -19.7010   23.4860 C.3      14   A    0.0000
    432 O3'        -7.2650  -20.5920   24.3870 O.3      14   A    0.0000
    433 C2'        -6.3440  -18.3300   24.0820 C.3      14   A    0.0000
    434 O2'        -5.7810  -18.4570   25.3790 O.3      14   A    0.0000
    435 C1'        -5.2570  -17.8210   23.1370 C.3      14   A    0.0000
    436 N1         -7.4460  -13.2740   22.1150 N.ar     14   A    0.0000
    437 C2         -7.0140  -13.8440   23.2470 C.ar     14   A    0.0000
    438 N3         -6.4470  -15.0410   23.4340 N.ar     14   A    0.0000
    439 C4         -6.3340  -15.7080   22.2700 C.ar     14   A    0.0000
    440 C5         -6.7300  -15.2570   21.0240 C.ar     14   A    0.0000
    441 C6         -7.3120  -13.9740   20.9650 C.ar     14   A    0.0000
    442 N6         -7.7420  -13.4110   19.8340 N.pl3    14   A    0.0000
    443 N7         -6.4540  -16.2140   20.0560 N.ar     14   A    0.0000
    444 C8         -5.9090  -17.2050   20.7300 C.ar     14   A    0.0000
    445 N9         -5.8100  -16.9630   22.0750 N.ar     14   A    0.0000
    446 OP1        -5.7780  -23.0060   19.5070 O.co2    14   A    0.0000
    447 OP2        -7.6460  -21.3440   19.0640 O.co2    14   A    0.0000
    448 HO2'       -6.4500  -18.7760   25.9890 H        14   A    0.0000
    449 H2         -7.1430  -13.2510   24.1400 H        14   A    0.0000
    450 H8         -5.5720  -18.1210   20.2670 H        14   A    0.0000
    451 H1'        -4.5140  -17.2610   23.7050 H        14   A    0.0000
    452 H2'        -7.2230  -17.6860   24.0790 H        14   A    0.0000
    453 H3'        -7.2670  -19.5800   22.6040 H        14   A    0.0000
    454 H4'        -4.7050  -20.4930   23.9320 H        14   A    0.0000
    455 H5'        -4.3650  -21.0660   21.3460 H        14   A    0.0000
    456 H61        -7.0660  -13.6980   19.1400 H        14   A    0.0000
    457 H62        -8.5970  -13.8940   19.5970 H        14   A    0.0000
    458 H5''       -5.0740  -22.2110   22.5030 H        14   A    0.0000
    459 P          -8.8570  -20.7910   24.3420 P.3      15   G    0.0000
    460 C5'        -9.4200  -18.4840   25.4500 C.3      15   G    0.0000
    461 O5'        -9.3980  -19.2940   24.2830 O.3      15   G    0.0000
    462 C4'       -10.1620  -17.1930   25.2170 C.3      15   G    0.0000
    463 O4'        -9.4120  -16.3500   24.3060 O.3      15   G    0.0000
    464 C3'       -11.5210  -17.3140   24.5560 C.3      15   G    0.0000
    465 O3'       -12.5430  -17.7050   25.4540 O.3      15   G    0.0000
    466 C2'       -11.7190  -15.9280   23.9650 C.3      15   G    0.0000
    467 O2'       -12.0650  -14.9960   24.9760 O.3      15   G    0.0000
    468 C1'       -10.3020  -15.6150   23.4920 C.3      15   G    0.0000
    469 N1        -10.9710  -14.3080   18.6500 N.am     15   G    0.0000
    470 C2        -11.3050  -13.6340   19.7970 C.2      15   G    0.0000
    471 N2        -11.9010  -12.4480   19.6380 N.pl3    15   G    0.0000
    472 N3        -11.0730  -14.0880   21.0120 N.2      15   G    0.0000
    473 C4        -10.4670  -15.2910   20.9880 C.ar     15   G    0.0000
    474 C5        -10.0890  -16.0520   19.9050 C.ar     15   G    0.0000
    475 C6        -10.3450  -15.5520   18.6030 C.2      15   G    0.0000
    476 O6        -10.0850  -16.0750   17.5090 O.2      15   G    0.0000
    477 N7         -9.4910  -17.2340   20.3160 N.ar     15   G    0.0000
    478 C8         -9.5200  -17.1710   21.6200 C.ar     15   G    0.0000
    479 N9        -10.0950  -16.0170   22.0890 N.ar     15   G    0.0000
    480 OP1        -9.2530  -21.4220   25.6260 O.co2    15   G    0.0000
    481 OP2        -9.1760  -21.4940   23.0710 O.co2    15   G    0.0000
    482 HO2'      -12.9550  -15.1770   25.2870 H        15   G    0.0000
    483 H1        -11.1980  -13.8680   17.7690 H        15   G    0.0000
    484 H8         -9.1310  -17.9480   22.2630 H        15   G    0.0000
    485 H1'       -10.1060  -14.5480   23.6010 H        15   G    0.0000
    486 H2'       -12.4350  -15.9290   23.1430 H        15   G    0.0000
    487 H21       -12.0830  -12.0940   18.7100 H        15   G    0.0000
    488 H3'       -11.4600  -18.0420   23.7460 H        15   G    0.0000
    489 H22       -12.1710  -11.9060   20.4470 H        15   G    0.0000
    490 H4'       -10.2760  -16.6730   26.1690 H        15   G    0.0000
    491 H5'        -9.9120  -19.0350   26.2520 H        15   G    0.0000
    492 H5''       -8.3960  -18.2590   25.7480 H        15   G    0.0000
    493 P         -13.9100  -18.3340   24.8890 P.3      16   G    0.0000
    494 C5'       -15.2230  -17.4280   22.8170 C.3      16   G    0.0000
    495 O5'       -14.4910  -17.1540   23.9980 O.3      16   G    0.0000
    496 C4'       -15.5080  -16.1690   22.0410 C.3      16   G    0.0000
    497 O4'       -14.2830  -15.6790   21.4320 O.3      16   G    0.0000
    498 C3'       -16.4720  -16.3130   20.8750 C.3      16   G    0.0000
    499 O3'       -17.8290  -16.2840   21.2770 O.3      16   G    0.0000
    500 C2'       -16.0740  -15.1530   19.9760 C.3      16   G    0.0000
    501 O2'       -16.5740  -13.9270   20.4870 O.3      16   G    0.0000
    502 C1'       -14.5590  -15.1600   20.1490 C.3      16   G    0.0000
    503 N1        -13.7100  -15.8400   15.2190 N.am     16   G    0.0000
    504 C2        -14.3980  -14.8410   15.8610 C.2      16   G    0.0000
    505 N2        -14.9440  -13.8920   15.0870 N.pl3    16   G    0.0000
    506 N3        -14.5440  -14.7800   17.1720 N.2      16   G    0.0000
    507 C4        -13.9360  -15.8120   17.7930 C.ar     16   G    0.0000
    508 C5        -13.2250  -16.8560   17.2510 C.ar     16   G    0.0000
    509 C6        -13.0750  -16.9110   15.8440 C.2      16   G    0.0000
    510 O6        -12.4760  -17.7560   15.1680 O.2      16   G    0.0000
    511 N7        -12.7590  -17.7070   18.2450 N.ar     16   G    0.0000
    512 C8        -13.1920  -17.1760   19.3560 C.ar     16   G    0.0000
    513 N9        -13.9080  -16.0230   19.1470 N.ar     16   G    0.0000
    514 OP1       -14.7950  -18.5740   26.0580 O.co2    16   G    0.0000
    515 OP2       -13.5400  -19.4840   24.0230 O.co2    16   G    0.0000
    516 HO2'      -16.1850  -13.1960   20.0020 H        16   G    0.0000
    517 H1        -13.6600  -15.7960   14.2110 H        16   G    0.0000
    518 H8        -13.0070  -17.5980   20.3330 H        16   G    0.0000
    519 H1'       -14.1720  -14.1440   20.0690 H        16   G    0.0000
    520 H2'       -16.3700  -15.3170   18.9400 H        16   G    0.0000
    521 H21       -14.8360  -13.9340   14.0840 H        16   G    0.0000
    522 H3'       -16.2710  -17.2510   20.3590 H        16   G    0.0000
    523 H22       -15.4620  -13.1340   15.5080 H        16   G    0.0000
    524 H4'       -15.8900  -15.4110   22.7250 H        16   G    0.0000
    525 H5'       -14.6450  -18.1070   22.1910 H        16   G    0.0000
    526 H5''      -16.1670  -17.9040   23.0840 H        16   G    0.0000
    527 P         -18.9400  -17.0930   20.4440 P.3      17   G    0.0000
    528 C5'       -19.3730  -14.9350   19.0090 C.3      17   G    0.0000
    529 O5'       -18.9880  -16.3050   19.0570 O.3      17   G    0.0000
    530 C4'       -19.6520  -14.4840   17.5960 C.3      17   G    0.0000
    531 O4'       -18.4060  -14.3390   16.8660 O.3      17   G    0.0000
    532 C3'       -20.4760  -15.4350   16.7430 C.3      17   G    0.0000
    533 O3'       -21.8670  -15.3160   16.9740 O.3      17   G    0.0000
    534 C2'       -20.0600  -15.0660   15.3260 C.3      17   G    0.0000
    535 O2'       -20.7320  -13.8930   14.8920 O.3      17   G    0.0000
    536 C1'       -18.5830  -14.7330   15.5230 C.3      17   G    0.0000
    537 N1        -16.2810  -17.6000   12.0080 N.am     17   G    0.0000
    538 C2        -17.0820  -16.5010   11.8390 C.2      17   G    0.0000
    539 N2        -17.2950  -16.1140   10.5720 N.pl3    17   G    0.0000
    540 N3        -17.6320  -15.8310   12.8390 N.2      17   G    0.0000
    541 C4        -17.3080  -16.3580   14.0380 C.ar     17   G    0.0000
    542 C5        -16.5160  -17.4530   14.3120 C.ar     17   G    0.0000
    543 C6        -15.9340  -18.1610   13.2320 C.2      17   G    0.0000
    544 O6        -15.2020  -19.1610   13.2760 O.2      17   G    0.0000
    545 N7        -16.4280  -17.6740   15.6800 N.ar     17   G    0.0000
    546 C8        -17.1580  -16.7250   16.2040 C.ar     17   G    0.0000
    547 N9        -17.7190  -15.8960   15.2640 N.ar     17   G    0.0000
    548 OP1       -20.2260  -16.9270   21.1650 O.co2    17   G    0.0000
    549 OP2       -18.4210  -18.4640   20.2310 O.co2    17   G    0.0000
    550 HO2'      -20.3500  -13.5930   14.0640 H        17   G    0.0000
    551 H1        -15.9140  -18.0390   11.1760 H        17   G    0.0000
    552 H8        -17.3050  -16.6050   17.2670 H        17   G    0.0000
    553 H1'       -18.3010  -13.9130   14.8620 H        17   G    0.0000
    554 H2'       -20.2010  -15.8940   14.6320 H        17   G    0.0000
    555 H21       -16.8750  -16.6270    9.8100 H        17   G    0.0000
    556 H3'       -20.1670  -16.4600   16.9500 H        17   G    0.0000
    557 H22       -17.8770  -15.3110   10.3810 H        17   G    0.0000
    558 H4'       -20.1540  -13.5170   17.6290 H        17   G    0.0000
    559 H5'       -18.5670  -14.3280   19.4210 H        17   G    0.0000
    560 H5''      -20.2700  -14.7960   19.6110 H        17   G    0.0000
    561 P         -22.8290  -16.5860   16.7820 P.3      18   U    0.0000
    562 C5'       -23.3750  -15.9320   14.3030 C.3      18   U    0.0000
    563 O5'       -22.7710  -16.8420   15.2100 O.3      18   U    0.0000
    564 C4'       -23.2190  -16.3900   12.8750 C.3      18   U    0.0000
    565 O4'       -21.8160  -16.3760   12.5050 O.3      18   U    0.0000
    566 C3'       -23.6630  -17.8150   12.5780 C.3      18   U    0.0000
    567 O3'       -25.0660  -17.9410   12.4150 O.3      18   U    0.0000
    568 C2'       -22.8650  -18.1540   11.3240 C.3      18   U    0.0000
    569 O2'       -23.4620  -17.5740   10.1740 O.3      18   U    0.0000
    570 C1'       -21.5470  -17.4300   11.6010 C.3      18   U    0.0000
    571 N1        -20.5400  -18.3300   12.2020 N.am     18   U    0.0000
    572 C2        -19.7900  -19.1040   11.3390 C.2      18   U    0.0000
    573 O2        -19.9340  -19.0630   10.1330 O.2      18   U    0.0000
    574 N3        -18.8690  -19.9330   11.9250 N.am     18   U    0.0000
    575 C4        -18.6230  -20.0570   13.2780 C.2      18   U    0.0000
    576 O4        -17.7550  -20.8430   13.6720 O.2      18   U    0.0000
    577 C5        -19.4400  -19.2200   14.1060 C.2      18   U    0.0000
    578 C6        -20.3490  -18.4060   13.5590 C.2      18   U    0.0000
    579 OP1       -22.2000  -17.7210   17.5010 O.co2    18   U    0.0000
    580 OP2       -24.1970  -16.1600   17.1740 O.co2    18   U    0.0000
    581 HO2'      -24.2920  -18.0170    9.9850 H        18   U    0.0000
    582 H3        -18.3150  -20.5080   11.3070 H        18   U    0.0000
    583 H5        -19.3200  -19.2460   15.1790 H        18   U    0.0000
    584 H6        -20.9540  -17.7890   14.2060 H        18   U    0.0000
    585 H1'       -21.1570  -17.0180   10.6700 H        18   U    0.0000
    586 H2'       -22.7230  -19.2290   11.2100 H        18   U    0.0000
    587 H3'       -23.3390  -18.4640   13.3920 H        18   U    0.0000
    588 H4'       -23.7630  -15.7060   12.2230 H        18   U    0.0000
    589 H5'       -24.4370  -15.8520   14.5350 H        18   U    0.0000
    590 H5''      -22.9110  -14.9520   14.4170 H        18   U    0.0000
    591 P         -25.8660  -19.1140   13.1720 P.3      19   G    0.0000
    592 C5'       -25.7890  -20.5580   10.9870 C.3      19   G    0.0000
    593 O5'       -25.4490  -20.4170   12.3570 O.3      19   G    0.0000
    594 C4'       -24.9420  -21.6050   10.3100 C.3      19   G    0.0000
    595 O4'       -23.5360  -21.2500   10.4120 O.3      19   G    0.0000
    596 C3'       -25.0050  -23.0030   10.9040 C.3      19   G    0.0000
    597 O3'       -26.1530  -23.7290   10.5060 O.3      19   G    0.0000
    598 C2'       -23.6960  -23.6170   10.4250 C.3      19   G    0.0000
    599 O2'       -23.7830  -23.9880    9.0560 O.3      19   G    0.0000
    600 C1'       -22.7550  -22.4210   10.5430 C.3      19   G    0.0000
    601 N1        -18.7110  -23.9820   13.1370 N.am     19   G    0.0000
    602 C2        -19.0560  -24.1920   11.8220 C.2      19   G    0.0000
    603 N2        -18.2060  -24.9230   11.0820 N.pl3    19   G    0.0000
    604 N3        -20.1570  -23.7200   11.2660 N.2      19   G    0.0000
    605 C4        -20.8920  -23.0090   12.1400 C.ar     19   G    0.0000
    606 C5        -20.6450  -22.7420   13.4680 C.ar     19   G    0.0000
    607 C6        -19.4610  -23.2570   14.0560 C.2      19   G    0.0000
    608 O6        -19.0580  -23.1300   15.2210 O.2      19   G    0.0000
    609 N7        -21.6640  -21.9710   14.0100 N.ar     19   G    0.0000
    610 C8        -22.4950  -21.7920   13.0170 C.ar     19   G    0.0000
    611 N9        -22.0790  -22.3920   11.8530 N.ar     19   G    0.0000
    612 OP1       -25.3280  -19.1890   14.5500 O.co2    19   G    0.0000
    613 OP2       -27.3120  -18.8450   12.9860 O.co2    19   G    0.0000
    614 HO2'      -23.8810  -24.9410    8.9870 H        19   G    0.0000
    615 H1        -17.8440  -24.3860   13.4610 H        19   G    0.0000
    616 H8        -23.4130  -21.2310   13.1020 H        19   G    0.0000
    617 H1'       -22.0120  -22.4590    9.7460 H        19   G    0.0000
    618 H2'       -23.3810  -24.4490   11.0550 H        19   G    0.0000
    619 H21       -17.3610  -25.2890   11.4970 H        19   G    0.0000
    620 H3'       -24.9880  -22.9300   11.9910 H        19   G    0.0000
    621 H22       -18.4120  -25.1060   10.1100 H        19   G    0.0000
    622 H4'       -25.2190  -21.6560    9.2570 H        19   G    0.0000
    623 H5'       -26.8370  -20.8470   10.9110 H        19   G    0.0000
    624 H5''      -25.6450  -19.6020   10.4830 H        19   G    0.0000
    625 P         -26.8870  -24.7070   11.5480 P.3      20   A    0.0000
    626 C5'       -25.9140  -26.5360   13.1490 C.3      20   A    0.0000
    627 O5'       -25.6760  -25.5070   12.2010 O.3      20   A    0.0000
    628 C4'       -25.2730  -27.8330   12.7280 C.3      20   A    0.0000
    629 O4'       -25.8460  -28.2800   11.4760 O.3      20   A    0.0000
    630 C3'       -23.7790  -27.7770   12.4550 C.3      20   A    0.0000
    631 O3'       -23.0080  -27.8580   13.6380 O.3      20   A    0.0000
    632 C2'       -23.5570  -28.9460   11.5000 C.3      20   A    0.0000
    633 O2'       -23.4250  -30.1670   12.2160 O.3      20   A    0.0000
    634 C1'       -24.8760  -28.9750   10.7230 C.3      20   A    0.0000
    635 N1        -22.8160  -29.3090    6.0280 N.ar     20   A    0.0000
    636 C2        -22.7240  -30.0870    7.1190 C.ar     20   A    0.0000
    637 N3        -23.2890  -29.9400    8.3170 N.ar     20   A    0.0000
    638 C4        -24.0410  -28.8250    8.3410 C.ar     20   A    0.0000
    639 C5        -24.2360  -27.9210    7.3080 C.ar     20   A    0.0000
    640 C6        -23.5810  -28.1940    6.0920 C.ar     20   A    0.0000
    641 N6        -23.6720  -27.4150    5.0110 N.pl3    20   A    0.0000
    642 N7        -25.0730  -26.8870    7.7090 N.ar     20   A    0.0000
    643 C8        -25.3630  -27.1830    8.9550 C.ar     20   A    0.0000
    644 N9        -24.7640  -28.3380    9.3990 N.ar     20   A    0.0000
    645 OP1       -27.7310  -25.6350   10.7560 O.co2    20   A    0.0000
    646 OP2       -27.5320  -23.8480   12.5690 O.co2    20   A    0.0000
    647 HO2'      -22.6010  -30.1620   12.7080 H        20   A    0.0000
    648 H2        -22.1010  -30.9620    7.0090 H        20   A    0.0000
    649 H8        -26.0110  -26.5780    9.5720 H        20   A    0.0000
    650 H1'       -25.1950  -30.0100   10.5970 H        20   A    0.0000
    651 H2'       -22.7060  -28.7720   10.8410 H        20   A    0.0000
    652 H3'       -23.5460  -26.8460   11.9390 H        20   A    0.0000
    653 H4'       -25.4640  -28.5860   13.4930 H        20   A    0.0000
    654 H5'       -25.5020  -26.2320   14.1110 H        20   A    0.0000
    655 H61       -23.1770  -27.6630    4.1660 H        20   A    0.0000
    656 H62       -24.2370  -26.5780    5.0370 H        20   A    0.0000
    657 H5''      -26.9890  -26.6850   13.2520 H        20   A    0.0000
    658 P         -21.9170  -26.7320   13.9630 P.3      21   A    0.0000
    659 C5'       -20.0130  -28.4050   13.3180 C.3      21   A    0.0000
    660 O5'       -20.6840  -27.1810   13.0670 O.3      21   A    0.0000
    661 C4'       -19.3550  -28.9360   12.0730 C.3      21   A    0.0000
    662 O4'       -20.3220  -28.9810   10.9980 O.3      21   A    0.0000
    663 C3'       -18.2130  -28.1000   11.5140 C.3      21   A    0.0000
    664 O3'       -16.9810  -28.3390   12.1740 O.3      21   A    0.0000
    665 C2'       -18.2000  -28.4900   10.0390 C.3      21   A    0.0000
    666 O2'       -17.5150  -29.7200    9.8520 O.3      21   A    0.0000
    667 C1'       -19.6880  -28.7210    9.7670 C.3      21   A    0.0000
    668 N1        -20.5040  -26.2410    5.3630 N.ar     21   A    0.0000
    669 C2        -19.8180  -27.3500    5.6670 C.ar     21   A    0.0000
    670 N3        -19.6530  -27.9380    6.8480 N.ar     21   A    0.0000
    671 C4        -20.2970  -27.2510    7.8060 C.ar     21   A    0.0000
    672 C5        -21.0440  -26.0920    7.6540 C.ar     21   A    0.0000
    673 C6        -21.1440  -25.5740    6.3500 C.ar     21   A    0.0000
    674 N6        -21.8260  -24.4700    6.0240 N.pl3    21   A    0.0000
    675 N7        -21.5590  -25.6750    8.8730 N.ar     21   A    0.0000
    676 C8        -21.1120  -26.5780    9.7220 C.ar     21   A    0.0000
    677 N9        -20.3350  -27.5550    9.1420 N.ar     21   A    0.0000
    678 OP1       -21.5710  -26.8610   15.4000 O.co2    21   A    0.0000
    679 OP2       -22.4620  -25.4420   13.4730 O.co2    21   A    0.0000
    680 HO2'      -16.5780  -29.5930   10.0190 H        21   A    0.0000
    681 H2        -19.3290  -27.8360    4.8360 H        21   A    0.0000
    682 H8        -21.3350  -26.5550   10.7780 H        21   A    0.0000
    683 H1'       -19.8030  -29.5870    9.1140 H        21   A    0.0000
    684 H2'       -17.7910  -27.6980    9.4130 H        21   A    0.0000
    685 H3'       -18.4670  -27.0440   11.6020 H        21   A    0.0000
    686 H4'       -18.9930  -29.9460   12.2660 H        21   A    0.0000
    687 H5'       -19.2510  -28.2430   14.0800 H        21   A    0.0000
    688 H61       -21.8520  -24.1570    5.0640 H        21   A    0.0000
    689 H62       -22.3140  -23.9480    6.7380 H        21   A    0.0000
    690 H5''      -20.7320  -29.1390   13.6830 H        21   A    0.0000
    691 P         -16.2190  -27.1500   12.9410 P.3      22   A    0.0000
    692 C5'       -14.6370  -26.8160   10.8770 C.3      22   A    0.0000
    693 O5'       -15.6240  -26.2820   11.7470 O.3      22   A    0.0000
    694 C4'       -13.9200  -25.7250   10.1220 C.3      22   A    0.0000
    695 O4'       -14.8720  -24.9540    9.3610 O.3      22   A    0.0000
    696 C3'       -13.1820  -24.6990   10.9770 C.3      22   A    0.0000
    697 O3'       -11.8510  -25.1000   11.2720 O.3      22   A    0.0000
    698 C2'       -13.2520  -23.3950   10.1630 C.3      22   A    0.0000
    699 O2'       -12.0400  -23.1680    9.4590 O.3      22   A    0.0000
    700 C1'       -14.3720  -23.6630    9.1480 C.3      22   A    0.0000
    701 N1        -16.9790  -20.2660    6.4270 N.ar     22   A    0.0000
    702 C2        -15.9600  -21.0890    6.1450 C.ar     22   A    0.0000
    703 N3        -15.3410  -21.9570    6.9370 N.ar     22   A    0.0000
    704 C4        -15.8740  -21.9320    8.1680 C.ar     22   A    0.0000
    705 C5        -16.9160  -21.1450    8.6180 C.ar     22   A    0.0000
    706 C6        -17.4940  -20.2660    7.6780 C.ar     22   A    0.0000
    707 N6        -18.5110  -19.4380    7.9350 N.pl3    22   A    0.0000
    708 N7        -17.1750  -21.4110    9.9580 N.ar     22   A    0.0000
    709 C8        -16.2940  -22.3380   10.2770 C.ar     22   A    0.0000
    710 N9        -15.4760  -22.6910    9.2340 N.ar     22   A    0.0000
    711 OP1       -15.1190  -27.7680   13.7150 O.co2    22   A    0.0000
    712 OP2       -17.2440  -26.3660   13.6670 O.co2    22   A    0.0000
    713 HO2'      -11.7640  -22.2570    9.5830 H        22   A    0.0000
    714 H2        -15.5910  -21.0400    5.1320 H        22   A    0.0000
    715 H8        -16.2230  -22.7750   11.2610 H        22   A    0.0000
    716 H1'       -13.9480  -23.6170    8.1450 H        22   A    0.0000
    717 H2'       -13.4970  -22.5480   10.8030 H        22   A    0.0000
    718 H3'       -13.7250  -24.5620   11.9120 H        22   A    0.0000
    719 H4'       -13.2090  -26.1830    9.4340 H        22   A    0.0000
    720 H5'       -13.9100  -27.3760   11.4660 H        22   A    0.0000
    721 H61       -18.8700  -18.8380    7.2060 H        22   A    0.0000
    722 H62       -18.9200  -19.4120    8.8580 H        22   A    0.0000
    723 H5''      -15.1140  -27.4890   10.1640 H        22   A    0.0000
    724 P         -11.5440  -26.0910   12.4990 P.3      23   U    0.0000
    725 C5'       -10.8550  -24.0560   14.0010 C.3      23   U    0.0000
    726 O5'       -10.4810  -25.2670   13.3510 O.3      23   U    0.0000
    727 C4'        -9.7570  -23.0220   13.9410 C.3      23   U    0.0000
    728 O4'        -8.7450  -23.3450   14.9350 O.3      23   U    0.0000
    729 C3'        -9.0360  -22.9160   12.5960 C.3      23   U    0.0000
    730 O3'        -8.7720  -21.5490   12.2880 O.3      23   U    0.0000
    731 C2'        -7.7240  -23.6540   12.8370 C.3      23   U    0.0000
    732 O2'        -6.6430  -23.1960   12.0570 O.3      23   U    0.0000
    733 C1'        -7.4750  -23.4250   14.3270 C.3      23   U    0.0000
    734 N1         -6.7290  -24.5280   14.9620 N.am     23   U    0.0000
    735 C2         -5.5020  -24.2690   15.5430 C.2      23   U    0.0000
    736 O2         -5.0160  -23.1560   15.5970 O.2      23   U    0.0000
    737 N3         -4.8660  -25.3630   16.0760 N.am     23   U    0.0000
    738 C4         -5.3300  -26.6660   16.0700 C.2      23   U    0.0000
    739 O4         -4.6420  -27.5470   16.5920 O.2      23   U    0.0000
    740 C5         -6.6010  -26.8570   15.4360 C.2      23   U    0.0000
    741 C6         -7.2360  -25.8060   14.9080 C.2      23   U    0.0000
    742 OP1       -10.9090  -27.3050   11.9350 O.co2    23   U    0.0000
    743 OP2       -12.7970  -26.2370   13.2680 O.co2    23   U    0.0000
    744 HO2'       -6.8290  -23.3530   11.1280 H        23   U    0.0000
    745 H3         -3.9720  -25.2000   16.5160 H        23   U    0.0000
    746 H5         -7.0430  -27.8410   15.3850 H        23   U    0.0000
    747 H6         -8.1850  -25.9660   14.4180 H        23   U    0.0000
    748 H1'        -6.9380  -22.4870   14.4700 H        23   U    0.0000
    749 H2'        -7.8720  -24.7190   12.6570 H        23   U    0.0000
    750 H3'        -9.6130  -23.3920   11.8030 H        23   U    0.0000
    751 H4'       -10.1840  -22.0490   14.1840 H        23   U    0.0000
    752 H5'       -11.0790  -24.2720   15.0460 H        23   U    0.0000
    753 H5''      -11.7480  -23.6550   13.5210 H        23   U    0.0000
    754 P          -9.8090  -20.7180   11.3830 P.3      24   U    0.0000
    755 C5'        -8.2060  -21.1700    9.3540 C.3      24   U    0.0000
    756 O5'        -9.5110  -21.2520    9.9110 O.3      24   U    0.0000
    757 C4'        -8.2230  -21.3080    7.8500 C.3      24   U    0.0000
    758 O4'        -8.3330  -22.7130    7.4900 O.3      24   U    0.0000
    759 C3'        -9.3660  -20.5840    7.1330 C.3      24   U    0.0000
    760 O3'        -8.8750  -19.9420    5.9630 O.3      24   U    0.0000
    761 C2'       -10.3040  -21.7150    6.7250 C.3      24   U    0.0000
    762 O2'       -11.0590  -21.4490    5.5640 O.3      24   U    0.0000
    763 C1'        -9.3320  -22.8640    6.5060 C.3      24   U    0.0000
    764 N1         -9.9480  -24.1980    6.6510 N.am     24   U    0.0000
    765 C2        -10.1370  -24.9180    5.4880 C.2      24   U    0.0000
    766 O2         -9.7960  -24.5060    4.3940 O.2      24   U    0.0000
    767 N3        -10.7240  -26.1430    5.6510 N.am     24   U    0.0000
    768 C4        -11.1450  -26.7050    6.8400 C.2      24   U    0.0000
    769 O4        -11.6640  -27.8260    6.8290 O.2      24   U    0.0000
    770 C5        -10.9260  -25.8900    7.9990 C.2      24   U    0.0000
    771 C6        -10.3510  -24.6910    7.8670 C.2      24   U    0.0000
    772 OP1       -11.1700  -21.1330   11.7990 O.co2    24   U    0.0000
    773 OP2        -9.4350  -19.2870   11.4850 O.co2    24   U    0.0000
    774 HO2'      -11.6830  -22.1630    5.4180 H        24   U    0.0000
    775 H3        -10.8650  -26.6930    4.8160 H        24   U    0.0000
    776 H5        -11.2250  -26.2430    8.9750 H        24   U    0.0000
    777 H6        -10.1970  -24.0880    8.7490 H        24   U    0.0000
    778 H1'        -8.8830  -22.7770    5.5160 H        24   U    0.0000
    779 H2'       -10.9730  -21.9530    7.5520 H        24   U    0.0000
    780 H3'        -9.8640  -19.8760    7.7950 H        24   U    0.0000
    781 H4'        -7.2790  -20.9270    7.4600 H        24   U    0.0000
    782 H5'        -7.7720  -20.2040    9.6130 H        24   U    0.0000
    783 H5''       -7.5880  -21.9620    9.7770 H        24   U    0.0000
    784 P          -8.9440  -18.3450    5.8510 P.3      25   C    0.0000
    785 C5'       -11.1880  -18.0140    4.5240 C.3      25   C    0.0000
    786 O5'       -10.5130  -18.0630    5.7720 O.3      25   C    0.0000
    787 C4'       -12.5990  -17.5120    4.6810 C.3      25   C    0.0000
    788 O4'       -13.4150  -18.5340    5.3020 O.3      25   C    0.0000
    789 C3'       -12.7720  -16.2910    5.5750 C.3      25   C    0.0000
    790 O3'       -12.5280  -15.0750    4.8900 O.3      25   C    0.0000
    791 C2'       -14.2080  -16.4260    6.0760 C.3      25   C    0.0000
    792 O2'       -15.1240  -15.9140    5.1220 O.3      25   C    0.0000
    793 C1'       -14.3800  -17.9440    6.1450 C.3      25   C    0.0000
    794 N1        -14.1980  -18.4710    7.5110 N.am     25   C    0.0000
    795 C2        -15.1140  -18.1220    8.5110 C.2      25   C    0.0000
    796 O2        -16.0510  -17.3520    8.2330 O.2      25   C    0.0000
    797 N3        -14.9400  -18.6270    9.7560 N.2      25   C    0.0000
    798 C4        -13.9190  -19.4460   10.0130 C.2      25   C    0.0000
    799 N4        -13.7820  -19.9260   11.2510 N.pl3    25   C    0.0000
    800 C5        -12.9870  -19.8200    9.0070 C.2      25   C    0.0000
    801 C6        -13.1630  -19.3190    7.7820 C.2      25   C    0.0000
    802 OP1        -8.3970  -17.7980    7.1230 O.co2    25   C    0.0000
    803 OP2        -8.2920  -17.9640    4.5690 O.co2    25   C    0.0000
    804 HO2'      -15.0290  -14.9600    5.0660 H        25   C    0.0000
    805 H5        -12.1650  -20.4870    9.2260 H        25   C    0.0000
    806 H6        -12.4760  -19.5880    6.9930 H        25   C    0.0000
    807 H1'       -15.3760  -18.2080    5.7890 H        25   C    0.0000
    808 H2'       -14.3400  -15.9610    7.0530 H        25   C    0.0000
    809 H3'       -12.0890  -16.3680    6.4220 H        25   C    0.0000
    810 H4'       -13.0050  -17.2870    3.6940 H        25   C    0.0000
    811 H41       -14.4420  -19.6660   11.9700 H        25   C    0.0000
    812 H5'       -10.6460  -17.3470    3.8540 H        25   C    0.0000
    813 H42       -13.0180  -20.5500   11.4690 H        25   C    0.0000
    814 H5''      -11.2110  -19.0140    4.0910 H        25   C    0.0000
    815 P         -11.6740  -13.9030    5.5890 P.3      26   C    0.0000
    816 C5'       -13.7480  -12.6490    6.5800 C.3      26   C    0.0000
    817 O5'       -12.6100  -13.4640    6.8020 O.3      26   C    0.0000
    818 C4'       -14.4480  -12.3140    7.8730 C.3      26   C    0.0000
    819 O4'       -14.9960  -13.5180    8.4630 O.3      26   C    0.0000
    820 C3'       -13.5770  -11.7380    8.9730 C.3      26   C    0.0000
    821 O3'       -13.3060  -10.3640    8.7990 O.3      26   C    0.0000
    822 C2'       -14.3850  -12.0460   10.2240 C.3      26   C    0.0000
    823 O2'       -15.4490  -11.1190   10.3750 O.3      26   C    0.0000
    824 C1'       -14.9790  -13.4100    9.8710 C.3      26   C    0.0000
    825 N1        -14.1820  -14.5220   10.4150 N.am     26   C    0.0000
    826 C2        -14.3550  -14.8790   11.7510 C.2      26   C    0.0000
    827 O2        -15.1640  -14.2450   12.4390 O.2      26   C    0.0000
    828 N3        -13.6320  -15.8990   12.2620 N.2      26   C    0.0000
    829 C4        -12.7690  -16.5560   11.4860 C.2      26   C    0.0000
    830 N4        -12.0790  -17.5570   12.0330 N.pl3    26   C    0.0000
    831 C5        -12.5750  -16.2160   10.1170 C.2      26   C    0.0000
    832 C6        -13.2970  -15.2010    9.6260 C.2      26   C    0.0000
    833 OP1       -11.5700  -12.7910    4.6030 O.co2    26   C    0.0000
    834 OP2       -10.4220  -14.5210    6.1080 O.co2    26   C    0.0000
    835 HO2'      -15.5430  -10.8880   11.3020 H        26   C    0.0000
    836 H5        -11.8740  -16.7560    9.4990 H        26   C    0.0000
    837 H6        -13.1790  -14.9150    8.5920 H        26   C    0.0000
    838 H1'       -15.9980  -13.4730   10.2520 H        26   C    0.0000
    839 H2'       -13.7570  -12.0940   11.1140 H        26   C    0.0000
    840 H3'       -12.6360  -12.2870    9.0100 H        26   C    0.0000
    841 H4'       -15.2610  -11.6190    7.6650 H        26   C    0.0000
    842 H41       -12.2180  -17.7950   13.0050 H        26   C    0.0000
    843 H5'       -14.4430  -13.1810    5.9290 H        26   C    0.0000
    844 H42       -11.4160  -18.0770   11.4760 H        26   C    0.0000
    845 H5''      -13.4370  -11.7260    6.0920 H        26   C    0.0000
    846 P         -11.9510   -9.7360    9.3840 P.3      27   C    0.0000
    847 C5'       -13.3330   -9.1230   11.5220 C.3      27   C    0.0000
    848 O5'       -12.2000   -9.7620   10.9550 O.3      27   C    0.0000
    849 C4'       -13.2810   -9.1350   13.0280 C.3      27   C    0.0000
    850 O4'       -13.6740  -10.4350   13.5290 O.3      27   C    0.0000
    851 C3'       -11.9160   -8.9030   13.6510 C.3      27   C    0.0000
    852 O3'       -11.5490   -7.5360   13.6750 O.3      27   C    0.0000
    853 C2'       -12.0810   -9.5150   15.0340 C.3      27   C    0.0000
    854 O2'       -12.7750   -8.6260   15.8950 O.3      27   C    0.0000
    855 C1'       -12.9940  -10.7050   14.7350 C.3      27   C    0.0000
    856 N1        -12.2380  -11.9620   14.5830 N.am     27   C    0.0000
    857 C2        -12.0000  -12.6950   15.7440 C.2      27   C    0.0000
    858 O2        -12.4280  -12.2510   16.8200 O.2      27   C    0.0000
    859 N3        -11.3120  -13.8550   15.6690 N.2      27   C    0.0000
    860 C4        -10.8680  -14.2910   14.4910 C.2      27   C    0.0000
    861 N4        -10.1970  -15.4470   14.4810 N.pl3    27   C    0.0000
    862 C5        -11.1000  -13.5640   13.2860 C.2      27   C    0.0000
    863 C6        -11.7810  -12.4130   13.3760 C.2      27   C    0.0000
    864 OP1       -10.8490  -10.6700    9.0340 O.co2    27   C    0.0000
    865 OP2       -11.8800   -8.3350    8.9050 O.co2    27   C    0.0000
    866 HO2'      -12.2160   -7.8710   16.0940 H        27   C    0.0000
    867 H5        -10.7390  -13.9270   12.3360 H        27   C    0.0000
    868 H6        -11.9710  -11.8340   12.4840 H        27   C    0.0000
    869 H1'       -13.7190  -10.8160   15.5410 H        27   C    0.0000
    870 H2'       -11.1270   -9.8290   15.4570 H        27   C    0.0000
    871 H3'       -11.1670   -9.4670   13.0950 H        27   C    0.0000
    872 H4'       -13.9740   -8.3850   13.4090 H        27   C    0.0000
    873 H41       -10.0430  -15.9490   15.3430 H        27   C    0.0000
    874 H5'       -13.3660   -8.0900   11.1770 H        27   C    0.0000
    875 H42        -9.8420  -15.8170   13.6110 H        27   C    0.0000
    876 H5''      -14.2350   -9.6380   11.1920 H        27   C    0.0000
    877 P         -10.0500   -7.1060   14.0620 P.3      28   G    0.0000
    878 C5'        -8.7250   -7.5780   16.2690 C.3      28   G    0.0000
    879 O5'        -9.9750   -7.4570   15.6120 O.3      28   G    0.0000
    880 C4'        -8.7190   -8.7320   17.2370 C.3      28   G    0.0000
    881 O4'        -9.5290   -9.8220   16.7150 O.3      28   G    0.0000
    882 C3'        -7.3620   -9.3660   17.4940 C.3      28   G    0.0000
    883 O3'        -6.5890   -8.6520   18.4420 O.3      28   G    0.0000
    884 C2'        -7.7330  -10.7770   17.9300 C.3      28   G    0.0000
    885 O2'        -8.2050  -10.7800   19.2710 O.3      28   G    0.0000
    886 C1'        -8.9150  -11.0620   17.0060 C.3      28   G    0.0000
    887 N1         -6.7920  -15.1120   14.7470 N.am     28   G    0.0000
    888 C2         -7.0530  -14.8930   16.0760 C.2      28   G    0.0000
    889 N2         -6.7050  -15.8780   16.9200 N.pl3    28   G    0.0000
    890 N3         -7.6190  -13.7890   16.5450 N.2      28   G    0.0000
    891 C4         -7.9040  -12.9080   15.5640 C.ar     28   G    0.0000
    892 C5         -7.6800  -13.0310   14.2070 C.ar     28   G    0.0000
    893 C6         -7.0730  -14.2210   13.7150 C.2      28   G    0.0000
    894 O6         -6.7940  -14.5200   12.5420 O.2      28   G    0.0000
    895 N7         -8.1130  -11.8990   13.5320 N.ar     28   G    0.0000
    896 C8         -8.5780  -11.1270   14.4760 C.ar     28   G    0.0000
    897 N9         -8.4820  -11.6750   15.7330 N.ar     28   G    0.0000
    898 OP1        -9.9570   -5.6360   13.8720 O.co2    28   G    0.0000
    899 OP2        -9.1270   -7.9840   13.2980 O.co2    28   G    0.0000
    900 HO2'       -7.8780  -11.5610   19.7240 H        28   G    0.0000
    901 H1         -6.3610  -15.9910   14.4970 H        28   G    0.0000
    902 H8         -8.9980  -10.1500   14.2870 H        28   G    0.0000
    903 H1'        -9.6270  -11.7180   17.5080 H        28   G    0.0000
    904 H2'        -6.9150  -11.4810   17.7810 H        28   G    0.0000
    905 H21        -6.2750  -16.7200   16.5650 H        28   G    0.0000
    906 H3'        -6.8120   -9.4180   16.5540 H        28   G    0.0000
    907 H22        -6.8730  -15.7770   17.9110 H        28   G    0.0000
    908 H4'        -9.1400   -8.4000   18.1860 H        28   G    0.0000
    909 H5'        -7.9470   -7.7390   15.5220 H        28   G    0.0000
    910 H5''       -8.5160   -6.6560   16.8100 H        28   G    0.0000
    911 P          -5.0110   -8.4400   18.2050 P.3      29   A    0.0000
    912 C5'        -4.5870  -10.5380   19.7000 C.3      29   A    0.0000
    913 O5'        -4.4180   -9.8980   18.4460 O.3      29   A    0.0000
    914 C4'        -4.1140  -11.9690   19.6740 C.3      29   A    0.0000
    915 O4'        -4.8610  -12.7290   18.6940 O.3      29   A    0.0000
    916 C3'        -2.6650  -12.1950   19.2880 C.3      29   A    0.0000
    917 O3'        -1.7740  -11.9290   20.3580 O.3      29   A    0.0000
    918 C2'        -2.6690  -13.6600   18.8410 C.3      29   A    0.0000
    919 O2'        -2.5930  -14.5300   19.9600 O.3      29   A    0.0000
    920 C1'        -4.0660  -13.7980   18.2220 C.3      29   A    0.0000
    921 N1         -2.6790  -16.2340   13.9050 N.ar     29   A    0.0000
    922 C2         -2.5290  -16.5520   15.1960 C.ar     29   A    0.0000
    923 N3         -2.9130  -15.8720   16.2750 N.ar     29   A    0.0000
    924 C4         -3.5230  -14.7260   15.9220 C.ar     29   A    0.0000
    925 C5         -3.7460  -14.2640   14.6410 C.ar     29   A    0.0000
    926 C6         -3.2960  -15.0730   13.5900 C.ar     29   A    0.0000
    927 N6         -3.4560  -14.7430   12.3070 N.pl3    29   A    0.0000
    928 N7         -4.3990  -13.0410   14.6590 N.ar     29   A    0.0000
    929 C8         -4.5570  -12.7870   15.9320 C.ar     29   A    0.0000
    930 N9         -4.0400  -13.7580   16.7480 N.ar     29   A    0.0000
    931 OP1        -4.5330   -7.5210   19.2670 O.co2    29   A    0.0000
    932 OP2        -4.8320   -8.0470   16.7830 O.co2    29   A    0.0000
    933 HO2'       -1.8830  -15.1620   19.8250 H        29   A    0.0000
    934 H2         -2.0290  -17.4890   15.3900 H        29   A    0.0000
    935 H8         -5.0460  -11.8990   16.3030 H        29   A    0.0000
    936 H1'        -4.5070  -14.7400   18.5450 H        29   A    0.0000
    937 H2'        -1.8820  -13.8630   18.1150 H        29   A    0.0000
    938 H3'        -2.4120  -11.5590   18.4400 H        29   A    0.0000
    939 H4'        -4.2850  -12.4080   20.6570 H        29   A    0.0000
    940 H5'        -4.0170   -9.9930   20.4520 H        29   A    0.0000
    941 H61        -3.1170  -15.3580   11.5810 H        29   A    0.0000
    942 H62        -3.9170  -13.8790   12.0610 H        29   A    0.0000
    943 H5''       -5.6430  -10.5170   19.9700 H        29   A    0.0000
    944 P          -0.2710  -11.4330   20.0720 P.3      30   C    0.0000
    945 C5'         0.4300  -13.9460   20.2450 C.3      30   C    0.0000
    946 O5'         0.4260  -12.7450   19.4930 O.3      30   C    0.0000
    947 C4'         0.8620  -15.1270   19.4150 C.3      30   C    0.0000
    948 O4'        -0.1090  -15.3910   18.3720 O.3      30   C    0.0000
    949 C3'         2.1650  -14.9740   18.6550 C.3      30   C    0.0000
    950 O3'         3.3050  -15.1320   19.4770 O.3      30   C    0.0000
    951 C2'         2.0320  -16.0440   17.5840 C.3      30   C    0.0000
    952 O2'         2.2710  -17.3320   18.1320 O.3      30   C    0.0000
    953 C1'         0.5460  -15.9330   17.2430 C.3      30   C    0.0000
    954 N1          0.3130  -15.0440   16.0910 N.am     30   C    0.0000
    955 C2          0.5590  -15.5270   14.8050 C.2      30   C    0.0000
    956 O2          0.9650  -16.6870   14.6760 O.2      30   C    0.0000
    957 N3          0.3560  -14.7210   13.7410 N.2      30   C    0.0000
    958 C4         -0.0820  -13.4760   13.9350 C.2      30   C    0.0000
    959 N4         -0.2740  -12.7010   12.8640 N.pl3    30   C    0.0000
    960 C5         -0.3440  -12.9600   15.2370 C.2      30   C    0.0000
    961 C6         -0.1310  -13.7690   16.2790 C.2      30   C    0.0000
    962 OP1        -0.3370  -10.3810   19.0170 O.co2    30   C    0.0000
    963 OP2         0.3240  -11.0850   21.3880 O.co2    30   C    0.0000
    964 HO2'        2.0090  -18.0040   17.4980 H        30   C    0.0000
    965 H5         -0.7010  -11.9500   15.3770 H        30   C    0.0000
    966 H6         -0.3130  -13.4090   17.2810 H        30   C    0.0000
    967 H1'         0.1450  -16.9240   17.0280 H        30   C    0.0000
    968 H2'         2.6670  -15.8420   16.7220 H        30   C    0.0000
    969 H3'         2.1940  -13.9930   18.1830 H        30   C    0.0000
    970 H4'         0.9320  -16.0030   20.0600 H        30   C    0.0000
    971 H41        -0.0890  -13.0630   11.9400 H        30   C    0.0000
    972 H5'         1.1190  -13.8340   21.0830 H        30   C    0.0000
    973 H42        -0.6040  -11.7530   12.9800 H        30   C    0.0000
    974 H5''       -0.5730  -14.1280   20.6300 H        30   C    0.0000
    975 P           4.7200  -14.5380   19.0070 P.3      31   C    0.0000
    976 C5'         5.3440  -16.8810   18.0100 C.3      31   C    0.0000
    977 O5'         5.1120  -15.4980   17.7940 O.3      31   C    0.0000
    978 C4'         5.8640  -17.5490   16.7680 C.3      31   C    0.0000
    979 O4'         4.8460  -17.5320   15.7450 O.3      31   C    0.0000
    980 C3'         7.0680  -16.8900   16.1210 C.3      31   C    0.0000
    981 O3'         8.2850  -17.2860   16.7240 O.3      31   C    0.0000
    982 C2'         6.9500  -17.3100   14.6600 C.3      31   C    0.0000
    983 O2'         7.5070  -18.5990   14.4650 O.3      31   C    0.0000
    984 C1'         5.4360  -17.4040   14.4760 C.3      31   C    0.0000
    985 N1          4.8660  -16.2110   13.8150 N.am     31   C    0.0000
    986 C2          4.8360  -16.1580   12.4190 C.2      31   C    0.0000
    987 O2          5.3200  -17.0950   11.7720 O.2      31   C    0.0000
    988 N3          4.2980  -15.0860   11.8000 N.2      31   C    0.0000
    989 C4          3.7790  -14.0990   12.5270 C.2      31   C    0.0000
    990 N4          3.2520  -13.0610   11.8690 N.pl3    31   C    0.0000
    991 C5          3.7830  -14.1330   13.9540 C.2      31   C    0.0000
    992 C6          4.3250  -15.2010   14.5550 C.2      31   C    0.0000
    993 OP1         5.6760  -14.7350   20.1350 O.co2    31   C    0.0000
    994 OP2         4.4730  -13.1560   18.5060 O.co2    31   C    0.0000
    995 HO2'        7.3920  -19.1220   15.2620 H        31   C    0.0000
    996 H5          3.3620  -13.3240   14.5310 H        31   C    0.0000
    997 H6          4.3330  -15.2620   15.6330 H        31   C    0.0000
    998 H1'         5.2020  -18.2870   13.8820 H        31   C    0.0000
    999 H2'         7.3930  -16.5720   13.9910 H        31   C    0.0000
   1000 H3'         6.9670  -15.8070   16.1930 H        31   C    0.0000
   1001 H4'         6.1120  -18.5840   17.0020 H        31   C    0.0000
   1002 H41         3.2580  -13.0480   10.8590 H        31   C    0.0000
   1003 H5'         4.4070  -17.3560   18.3020 H        31   C    0.0000
   1004 H42         2.8490  -12.2900   12.3810 H        31   C    0.0000
   1005 H5''        6.0710  -17.0020   18.8120 H        31   C    0.0000
   1006 P           9.5280  -16.2760   16.8000 P.3      32   G    0.0000
   1007 C5'        10.4750  -17.7990   14.8900 C.3      32   G    0.0000
   1008 O5'        10.2420  -16.4910   15.3980 O.3      32   G    0.0000
   1009 C4'        10.8400  -17.7640   13.4290 C.3      32   G    0.0000
   1010 O4'         9.7630  -17.1280   12.6900 O.3      32   G    0.0000
   1011 C3'        12.0960  -16.9690   13.1000 C.3      32   G    0.0000
   1012 O3'        12.6900  -17.5040   11.9190 O.3      32   G    0.0000
   1013 C2'        11.5310  -15.5900   12.8010 C.3      32   G    0.0000
   1014 O2'        12.3750  -14.7690   12.0230 O.3      32   G    0.0000
   1015 C1'        10.2460  -15.9560   12.0600 C.3      32   G    0.0000
   1016 N1          6.8650  -13.3410    9.3670 N.am     32   G    0.0000
   1017 C2          7.8030  -14.2750    8.9600 C.2      32   G    0.0000
   1018 N2          7.8390  -14.5590    7.6420 N.pl3    32   G    0.0000
   1019 N3          8.6440  -14.8930    9.7810 N.2      32   G    0.0000
   1020 C4          8.4690  -14.4900   11.0570 C.ar     32   G    0.0000
   1021 C5          7.5730  -13.5730   11.5670 C.ar     32   G    0.0000
   1022 C6          6.6730  -12.9150   10.6820 C.2      32   G    0.0000
   1023 O6          5.7990  -12.0610   10.9410 O.2      32   G    0.0000
   1024 N7          7.7310  -13.4570   12.9400 N.ar     32   G    0.0000
   1025 C8          8.6970  -14.2910   13.2290 C.ar     32   G    0.0000
   1026 N9          9.1940  -14.9410   12.1280 N.ar     32   G    0.0000
   1027 OP1        10.4050  -16.7510   17.8910 O.co2    32   G    0.0000
   1028 OP2         8.9770  -14.9060   16.8740 O.co2    32   G    0.0000
   1029 HO2'       13.1690  -14.5610   12.5220 H        32   G    0.0000
   1030 H1          6.2740  -12.9360    8.6550 H        32   G    0.0000
   1031 H8          9.0650  -14.4520   14.2320 H        32   G    0.0000
   1032 H1'        10.4770  -16.1720   11.0170 H        32   G    0.0000
   1033 H2'        11.2850  -15.0830   13.7350 H        32   G    0.0000
   1034 H21         7.2030  -14.0970    7.0080 H        32   G    0.0000
   1035 H3'        12.7960  -16.9510   13.9350 H        32   G    0.0000
   1036 H22         8.5020  -15.2340    7.2890 H        32   G    0.0000
   1037 H4'        10.9620  -18.7860   13.0690 H        32   G    0.0000
   1038 H5'        11.2910  -18.2560   15.4490 H        32   G    0.0000
   1039 H5''        9.5730  -18.3990   15.0190 H        32   G    0.0000
   1040 P          14.2870  -17.6330   11.7990 P.3      33   G    0.0000
   1041 C5'        14.5040  -20.2440   11.9390 C.3      33   G    0.0000
   1042 O5'        14.4790  -19.0720   11.1380 O.3      33   G    0.0000
   1043 C4'        15.1540  -21.3910   11.2080 C.3      33   G    0.0000
   1044 O4'        14.4030  -21.6930   10.0030 O.3      33   G    0.0000
   1045 C3'        16.5750  -21.1460   10.7190 C.3      33   G    0.0000
   1046 O3'        17.5420  -21.3770   11.7220 O.3      33   G    0.0000
   1047 C2'        16.6980  -22.0890    9.5330 C.3      33   G    0.0000
   1048 O2'        16.9480  -23.4140    9.9720 O.3      33   G    0.0000
   1049 C1'        15.2850  -22.0310    8.9550 C.3      33   G    0.0000
   1050 N1         16.7350  -20.4090    4.3430 N.am     33   G    0.0000
   1051 C2         17.1350  -21.5250    5.0270 C.2      33   G    0.0000
   1052 N2         18.0220  -22.3050    4.4050 N.pl3    33   G    0.0000
   1053 N3         16.6960  -21.8570    6.2250 N.2      33   G    0.0000
   1054 C4         15.8050  -20.9610    6.6940 C.ar     33   G    0.0000
   1055 C5         15.3420  -19.8170    6.0940 C.ar     33   G    0.0000
   1056 C6         15.8180  -19.4710    4.8070 C.2      33   G    0.0000
   1057 O6         15.5140  -18.4900    4.1170 O.2      33   G    0.0000
   1058 N7         14.4350  -19.1670    6.9120 N.ar     33   G    0.0000
   1059 C8         14.3530  -19.9030    7.9780 C.ar     33   G    0.0000
   1060 N9         15.1620  -21.0040    7.9080 N.ar     33   G    0.0000
   1061 OP1        14.7430  -16.5800   10.8520 O.co2    33   G    0.0000
   1062 OP2        14.8340  -17.6360   13.1820 O.co2    33   G    0.0000
   1063 HO2'       17.8940  -23.5440   10.0710 H        33   G    0.0000
   1064 H1         17.1370  -20.2540    3.4290 H        33   G    0.0000
   1065 H8         13.7190  -19.6730    8.8220 H        33   G    0.0000
   1066 H1'        15.0150  -23.0050    8.5470 H        33   G    0.0000
   1067 H2'        17.4460  -21.7490    8.8160 H        33   G    0.0000
   1068 H21        18.3580  -22.0550    3.4860 H        33   G    0.0000
   1069 H3'        16.6610  -20.1170   10.3690 H        33   G    0.0000
   1070 H22        18.3570  -23.1460    4.8530 H        33   G    0.0000
   1071 H4'        15.1500  -22.2690   11.8550 H        33   G    0.0000
   1072 H5'        13.4820  -20.5200   12.1960 H        33   G    0.0000
   1073 H5''       15.0610  -20.0400   12.8530 H        33   G    0.0000
   1074 P          18.7680  -20.3660   11.9070 P.3      34   U    0.0000
   1075 C5'        20.2040  -21.9360   10.3750 C.3      34   U    0.0000
   1076 O5'        19.6520  -20.6490   10.6120 O.3      34   U    0.0000
   1077 C4'        20.9800  -21.9770    9.0830 C.3      34   U    0.0000
   1078 O4'        20.0710  -21.8920    7.9570 O.3      34   U    0.0000
   1079 C3'        21.9520  -20.8370    8.8510 C.3      34   U    0.0000
   1080 O3'        23.1690  -21.0050    9.5440 O.3      34   U    0.0000
   1081 C2'        22.1040  -20.8380    7.3380 C.3      34   U    0.0000
   1082 O2'        22.9740  -21.8780    6.9230 O.3      34   U    0.0000
   1083 C1'        20.6860  -21.1940    6.8950 C.3      34   U    0.0000
   1084 N1         19.8830  -19.9930    6.5970 N.am     34   U    0.0000
   1085 C2         20.0760  -19.3990    5.3660 C.2      34   U    0.0000
   1086 O2         20.8680  -19.8340    4.5450 O.2      34   U    0.0000
   1087 N3         19.3110  -18.2830    5.1350 N.am     34   U    0.0000
   1088 C4         18.3920  -17.7140    5.9900 C.2      34   U    0.0000
   1089 O4         17.7790  -16.7050    5.6340 O.2      34   U    0.0000
   1090 C5         18.2530  -18.3890    7.2440 C.2      34   U    0.0000
   1091 C6         18.9820  -19.4790    7.5000 C.2      34   U    0.0000
   1092 OP1        19.5020  -20.7920   13.1280 O.co2    34   U    0.0000
   1093 OP2        18.2100  -18.9860   11.8490 O.co2    34   U    0.0000
   1094 HO2'       23.5680  -21.5470    6.2460 H        34   U    0.0000
   1095 H3         19.4350  -17.8300    4.2410 H        34   U    0.0000
   1096 H5         17.5590  -18.0170    7.9830 H        34   U    0.0000
   1097 H6         18.8600  -19.9750    8.4520 H        34   U    0.0000
   1098 H1'        20.7280  -21.8340    6.0140 H        34   U    0.0000
   1099 H2'        22.4190  -19.8660    6.9580 H        34   U    0.0000
   1100 H3'        21.4880  -19.9010    9.1640 H        34   U    0.0000
   1101 H4'        21.5230  -22.9200    9.0270 H        34   U    0.0000
   1102 H5'        20.8730  -22.1900   11.1970 H        34   U    0.0000
   1103 H5''       19.3980  -22.6680   10.3310 H        34   U    0.0000
   1104 P          23.9700  -19.7240   10.0860 P.3      35   G    0.0000
   1105 C5'        25.8020  -19.9490    8.2390 C.3      35   G    0.0000
   1106 O5'        24.7270  -19.2050    8.7870 O.3      35   G    0.0000
   1107 C4'        26.2890  -19.3590    6.9420 C.3      35   G    0.0000
   1108 O4'        25.2510  -19.4460    5.9280 O.3      35   G    0.0000
   1109 C3'        26.6330  -17.8850    6.9620 C.3      35   G    0.0000
   1110 O3'        27.8720  -17.6050    7.5750 O.3      35   G    0.0000
   1111 C2'        26.5880  -17.5420    5.4840 C.3      35   G    0.0000
   1112 O2'        27.7230  -18.0720    4.8130 O.3      35   G    0.0000
   1113 C1'        25.3560  -18.3360    5.0550 C.3      35   G    0.0000
   1114 N1         22.8550  -14.3940    3.1720 N.am     35   G    0.0000
   1115 C2         24.0480  -14.9490    2.7790 C.2      35   G    0.0000
   1116 N2         24.6650  -14.3690    1.7390 N.pl3    35   G    0.0000
   1117 N3         24.5940  -15.9950    3.3690 N.2      35   G    0.0000
   1118 C4         23.8380  -16.4470    4.3900 C.ar     35   G    0.0000
   1119 C5         22.6380  -15.9700    4.8620 C.ar     35   G    0.0000
   1120 C6         22.0640  -14.8450    4.2220 C.2      35   G    0.0000
   1121 O6         21.0040  -14.2650    4.4850 O.2      35   G    0.0000
   1122 N7         22.1940  -16.7280    5.9370 N.ar     35   G    0.0000
   1123 C8         23.1210  -17.6380    6.0990 C.ar     35   G    0.0000
   1124 N9         24.1350  -17.5250    5.1810 N.ar     35   G    0.0000
   1125 OP1        24.9550  -20.2170   11.0830 O.co2    35   G    0.0000
   1126 OP2        22.9620  -18.7250   10.5130 O.co2    35   G    0.0000
   1127 HO2'       27.9740  -17.4840    4.0970 H        35   G    0.0000
   1128 H1         22.5240  -13.5920    2.6540 H        35   G    0.0000
   1129 H8         23.0910  -18.3930    6.8710 H        35   G    0.0000
   1130 H1'        25.4720  -18.6800    4.0270 H        35   G    0.0000
   1131 H2'        26.4700  -16.4720    5.3130 H        35   G    0.0000
   1132 H21        24.2490  -13.5670    1.2880 H        35   G    0.0000
   1133 H3'        25.8450  -17.3390    7.4800 H        35   G    0.0000
   1134 H22        25.5470  -14.7340    1.4080 H        35   G    0.0000
   1135 H4'        27.1600  -19.9200    6.6040 H        35   G    0.0000
   1136 H5'        26.6250  -19.9570    8.9540 H        35   G    0.0000
   1137 H5''       25.4730  -20.9740    8.0630 H        35   G    0.0000
   1138 P          28.1400  -16.1600    8.2180 P.3      36   G    0.0000
   1139 C5'        28.8300  -15.2670    5.8560 C.3      36   G    0.0000
   1140 O5'        27.9550  -15.1820    6.9740 O.3      36   G    0.0000
   1141 C4'        28.5610  -14.1810    4.8430 C.3      36   G    0.0000
   1142 O4'        27.2050  -14.2870    4.3450 O.3      36   G    0.0000
   1143 C3'        28.6570  -12.7530    5.3490 C.3      36   G    0.0000
   1144 O3'        29.9940  -12.2940    5.4380 O.3      36   G    0.0000
   1145 C2'        27.8120  -11.9820    4.3390 C.3      36   G    0.0000
   1146 O2'        28.5570  -11.7090    3.1610 O.3      36   G    0.0000
   1147 C1'        26.7230  -13.0060    3.9980 C.3      36   G    0.0000
   1148 N1         22.3990  -10.3340    4.1620 N.am     36   G    0.0000
   1149 C2         23.4200  -10.2750    3.2500 C.2      36   G    0.0000
   1150 N2         23.2620   -9.3910    2.2550 N.pl3    36   G    0.0000
   1151 N3         24.5060  -11.0290    3.3150 N.2      36   G    0.0000
   1152 C4         24.4880  -11.8590    4.3830 C.ar     36   G    0.0000
   1153 C5         23.5160  -11.9940    5.3510 C.ar     36   G    0.0000
   1154 C6         22.3570  -11.1790    5.2670 C.2      36   G    0.0000
   1155 O6         21.3820  -11.1470    6.0280 O.2      36   G    0.0000
   1156 N7         23.8720  -12.9620    6.2830 N.ar     36   G    0.0000
   1157 C8         25.0370  -13.3870    5.8740 C.ar     36   G    0.0000
   1158 N9         25.4690  -12.7570    4.7330 N.ar     36   G    0.0000
   1159 OP1        29.5550  -16.1410    8.6660 O.co2    36   G    0.0000
   1160 OP2        27.0720  -15.9170    9.2190 O.co2    36   G    0.0000
   1161 HO2'       29.2440  -11.0680    3.3570 H        36   G    0.0000
   1162 H1         21.6150   -9.7140    4.0210 H        36   G    0.0000
   1163 H8         25.6020  -14.1550    6.3820 H        36   G    0.0000
   1164 H1'        26.5240  -12.9760    2.9270 H        36   G    0.0000
   1165 H2'        27.3930  -11.0740    4.7720 H        36   G    0.0000
   1166 H21        22.4290   -8.8210    2.2140 H        36   G    0.0000
   1167 H3'        28.1900  -12.6890    6.3320 H        36   G    0.0000
   1168 H22        23.9760   -9.2950    1.5460 H        36   G    0.0000
   1169 H4'        29.2510  -14.3030    4.0080 H        36   G    0.0000
   1170 H5'        29.8580  -15.1760    6.2050 H        36   G    0.0000
   1171 H5''       28.7020  -16.2390    5.3780 H        36   G    0.0000
   1172 P          30.5290  -11.6190    6.7940 P.3      37   U    0.0000
   1173 C5'        30.2240   -9.3580    5.5160 C.3      37   U    0.0000
   1174 O5'        29.9840  -10.1280    6.6810 O.3      37   U    0.0000
   1175 C4'        29.2390   -8.2280    5.3900 C.3      37   U    0.0000
   1176 O4'        27.9220   -8.7470    5.0890 O.3      37   U    0.0000
   1177 C3'        29.0260   -7.3850    6.6380 C.3      37   U    0.0000
   1178 O3'        30.0540   -6.4270    6.8370 O.3      37   U    0.0000
   1179 C2'        27.6540   -6.7660    6.3880 C.3      37   U    0.0000
   1180 O2'        27.7590   -5.6440    5.5270 O.3      37   U    0.0000
   1181 C1'        26.9370   -7.8900    5.6310 C.3      37   U    0.0000
   1182 N1         26.0450   -8.6750    6.5120 N.am     37   U    0.0000
   1183 C2         24.6890   -8.5850    6.2640 C.2      37   U    0.0000
   1184 O2         24.2270   -7.9070    5.3630 O.2      37   U    0.0000
   1185 N3         23.8890   -9.3160    7.1060 N.am     37   U    0.0000
   1186 C4         24.3010  -10.1090    8.1580 C.2      37   U    0.0000
   1187 O4         23.4570  -10.7120    8.8290 O.2      37   U    0.0000
   1188 C5         25.7220  -10.1470    8.3530 C.2      37   U    0.0000
   1189 C6         26.5250   -9.4440    7.5460 C.2      37   U    0.0000
   1190 OP1        32.0140  -11.6190    6.7240 O.co2    37   U    0.0000
   1191 OP2        29.8650  -12.3180    7.9240 O.co2    37   U    0.0000
   1192 HO2'       28.2070   -4.9290    5.9850 H        37   U    0.0000
   1193 H3         22.8940   -9.2680    6.9400 H        37   U    0.0000
   1194 H5         26.1420  -10.7410    9.1510 H        37   U    0.0000
   1195 H6         27.5920   -9.4830    7.7130 H        37   U    0.0000
   1196 H1'        26.3510   -7.4590    4.8190 H        37   U    0.0000
   1197 H2'        27.1470   -6.5160    7.3190 H        37   U    0.0000
   1198 H3'        28.9710   -8.0400    7.5080 H        37   U    0.0000
   1199 H4'        29.5550   -7.5760    4.5760 H        37   U    0.0000
   1200 H5'        31.2320   -8.9470    5.5650 H        37   U    0.0000
   1201 H5''       30.1430  -10.0020    4.6400 H        37   U    0.0000
   1202 P          30.5790   -6.0920    8.3180 P.3      38   A    0.0000
   1203 C5'        29.4240   -4.4700   10.0300 C.3      38   A    0.0000
   1204 O5'        29.2970   -5.4480    9.0030 O.3      38   A    0.0000
   1205 C4'        28.3110   -4.5890   11.0360 C.3      38   A    0.0000
   1206 O4'        28.1440   -3.3240   11.7430 O.3      38   A    0.0000
   1207 C3'        26.9340   -4.9220   10.4490 C.3      38   A    0.0000
   1208 O3'        26.2270   -5.7340   11.3780 O.3      38   A    0.0000
   1209 C2'        26.2700   -3.5550   10.4010 C.3      38   A    0.0000
   1210 O2'        24.8610   -3.5870   10.3590 O.3      38   A    0.0000
   1211 C1'        26.7770   -2.9740   11.7050 C.3      38   A    0.0000
   1212 N1         26.4430    0.8360   15.0750 N.ar     38   A    0.0000
   1213 C2         26.6380   -0.4880   15.1930 C.ar     38   A    0.0000
   1214 N3         26.7210   -1.4220   14.2510 N.ar     38   A    0.0000
   1215 C4         26.5730   -0.8690   13.0390 C.ar     38   A    0.0000
   1216 C5         26.3630    0.4640   12.7480 C.ar     38   A    0.0000
   1217 C6         26.2960    1.3530   13.8360 C.ar     38   A    0.0000
   1218 N6         26.1030    2.6690   13.7150 N.pl3    38   A    0.0000
   1219 N7         26.2570    0.6470   11.3770 N.ar     38   A    0.0000
   1220 C8         26.4050   -0.5620   10.8820 C.ar     38   A    0.0000
   1221 N9         26.6250   -1.5220   11.8360 N.ar     38   A    0.0000
   1222 OP1        31.6460   -5.0700    8.1850 O.co2    38   A    0.0000
   1223 OP2        30.9050   -7.3850    8.9700 O.co2    38   A    0.0000
   1224 HO2'       24.5180   -2.6950   10.4460 H        38   A    0.0000
   1225 H2         26.7430   -0.8470   16.2060 H        38   A    0.0000
   1226 H8         26.3580   -0.7790    9.8250 H        38   A    0.0000
   1227 H1'        26.2640   -3.4600   12.5340 H        38   A    0.0000
   1228 H2'        26.6560   -2.9810    9.5590 H        38   A    0.0000
   1229 H3'        27.0040   -5.3840    9.4650 H        38   A    0.0000
   1230 H4'        28.5760   -5.3600   11.7590 H        38   A    0.0000
   1231 H5'        29.3920   -3.4770    9.5810 H        38   A    0.0000
   1232 H61        26.0670    3.2520   14.5400 H        38   A    0.0000
   1233 H62        25.9920    3.0820   12.8000 H        38   A    0.0000
   1234 H5''       30.3800   -4.6040   10.5350 H        38   A    0.0000
   1235 P          26.0480   -7.3070   11.1280 P.3      39   U    0.0000
   1236 C5'        24.5140   -9.0140   12.3900 C.3      39   U    0.0000
   1237 O5'        25.1420   -7.7410   12.3610 O.3      39   U    0.0000
   1238 C4'        23.4640   -9.0940   13.4690 C.3      39   U    0.0000
   1239 O4'        23.8840   -8.2990   14.6090 O.3      39   U    0.0000
   1240 C3'        22.0790   -8.5840   13.0770 C.3      39   U    0.0000
   1241 O3'        21.0940   -9.4010   13.6910 O.3      39   U    0.0000
   1242 C2'        22.0310   -7.1930   13.6940 C.3      39   U    0.0000
   1243 O2'        20.7260   -6.7290   13.9900 O.3      39   U    0.0000
   1244 C1'        22.8560   -7.3940   14.9590 C.3      39   U    0.0000
   1245 N1         23.4810   -6.1650   15.4680 N.am     39   U    0.0000
   1246 C2         22.8780   -5.5800   16.5510 C.2      39   U    0.0000
   1247 O2         21.8780   -6.0590   17.0580 O.2      39   U    0.0000
   1248 N3         23.4820   -4.4340   17.0030 N.am     39   U    0.0000
   1249 C4         24.6080   -3.8390   16.4830 C.2      39   U    0.0000
   1250 O4         25.0510   -2.8070   16.9900 O.2      39   U    0.0000
   1251 C5         25.1700   -4.5140   15.3570 C.2      39   U    0.0000
   1252 C6         24.6030   -5.6300   14.8930 C.2      39   U    0.0000
   1253 OP1        27.3950   -7.9290   11.2410 O.co2    39   U    0.0000
   1254 OP2        25.2900   -7.4670    9.8620 O.co2    39   U    0.0000
   1255 HO2'       20.0860   -7.4050   13.7560 H        39   U    0.0000
   1256 H3         23.0560   -3.9810   17.7990 H        39   U    0.0000
   1257 H5         26.0550   -4.1210   14.8780 H        39   U    0.0000
   1258 H6         25.0420   -6.1260   14.0400 H        39   U    0.0000
   1259 H1'        22.2310   -7.8340   15.7360 H        39   U    0.0000
   1260 H2'        22.5330   -6.4820   13.0370 H        39   U    0.0000
   1261 H3'        21.9540   -8.5490   11.9950 H        39   U    0.0000
   1262 H4'        23.3730  -10.1330   13.7860 H        39   U    0.0000
   1263 H5'        24.0430   -9.1970   11.4240 H        39   U    0.0000
   1264 H5''       25.2690   -9.7790   12.5690 H        39   U    0.0000
   1265 P          20.4420  -10.6060   12.8690 P.3      40   A    0.0000
   1266 C5'        18.3550   -9.1480   12.2600 C.3      40   A    0.0000
   1267 O5'        19.5180   -9.8440   11.8280 O.3      40   A    0.0000
   1268 C4'        17.3090   -9.1230   11.1850 C.3      40   A    0.0000
   1269 O4'        17.7430   -8.2130   10.1390 O.3      40   A    0.0000
   1270 C3'        17.0660  -10.4700   10.5060 C.3      40   A    0.0000
   1271 O3'        15.6940  -10.5800   10.1360 O.3      40   A    0.0000
   1272 C2'        17.9290  -10.3780    9.2520 C.3      40   A    0.0000
   1273 O2'        17.5060  -11.1990    8.1870 O.3      40   A    0.0000
   1274 C1'        17.8070   -8.8980    8.9060 C.3      40   A    0.0000
   1275 N1         19.2920   -5.7280    5.1560 N.ar     40   A    0.0000
   1276 C2         18.0910   -5.9970    5.6810 C.ar     40   A    0.0000
   1277 N3         17.7730   -6.8350    6.6630 N.ar     40   A    0.0000
   1278 C4         18.8730   -7.4550    7.1280 C.ar     40   A    0.0000
   1279 C5         20.1730   -7.2870    6.6920 C.ar     40   A    0.0000
   1280 C6         20.3730   -6.3710    5.6490 C.ar     40   A    0.0000
   1281 N6         21.5710   -6.1060    5.1260 N.pl3    40   A    0.0000
   1282 N7         21.0430   -8.0980    7.4100 N.ar     40   A    0.0000
   1283 C8         20.2650   -8.7260    8.2550 C.ar     40   A    0.0000
   1284 N9         18.9430   -8.3760    8.1420 N.ar     40   A    0.0000
   1285 OP1        19.6030  -11.3840   13.8200 O.co2    40   A    0.0000
   1286 OP2        21.5480  -11.2990   12.1520 O.co2    40   A    0.0000
   1287 HO2'       18.0950  -11.9530    8.1110 H        40   A    0.0000
   1288 H2         17.2630   -5.4580    5.2450 H        40   A    0.0000
   1289 H8         20.6280   -9.4480    8.9710 H        40   A    0.0000
   1290 H1'        16.8860   -8.7300    8.3480 H        40   A    0.0000
   1291 H2'        18.9640  -10.6100    9.5040 H        40   A    0.0000
   1292 H3'        17.3750  -11.2990   11.1420 H        40   A    0.0000
   1293 H4'        16.3720   -8.7610   11.6070 H        40   A    0.0000
   1294 H5'        17.9490   -9.6470   13.1400 H        40   A    0.0000
   1295 H61        21.6580   -5.4360    4.3750 H        40   A    0.0000
   1296 H62        22.3920   -6.5750    5.4810 H        40   A    0.0000
   1297 H5''       18.6250   -8.1250   12.5200 H        40   A    0.0000
   1298 P          14.5870  -10.9860   11.2310 P.3      41   G    0.0000
   1299 C5'        14.1910  -13.0530    9.6720 C.3      41   G    0.0000
   1300 O5'        13.6480  -11.9870   10.4300 O.3      41   G    0.0000
   1301 C4'        13.3450  -13.3340    8.4640 C.3      41   G    0.0000
   1302 O4'        11.9990  -13.6510    8.8880 O.3      41   G    0.0000
   1303 C3'        13.1850  -12.1690    7.5020 C.3      41   G    0.0000
   1304 O3'        14.2430  -12.1030    6.5630 O.3      41   G    0.0000
   1305 C2'        11.8210  -12.4180    6.8670 C.3      41   G    0.0000
   1306 O2'        11.9300  -13.3480    5.8020 O.3      41   G    0.0000
   1307 C1'        11.0570  -13.0830    8.0090 C.3      41   G    0.0000
   1308 N1          7.1310   -9.7280    8.1260 N.am     41   G    0.0000
   1309 C2          7.6220  -10.4260    7.0510 C.2      41   G    0.0000
   1310 N2          7.0020  -10.2080    5.8790 N.pl3    41   G    0.0000
   1311 N3          8.6480  -11.2670    7.1190 N.2      41   G    0.0000
   1312 C4          9.1480  -11.3590    8.3710 C.ar     41   G    0.0000
   1313 C5          8.7190  -10.6970    9.5070 C.ar     41   G    0.0000
   1314 C6          7.6270   -9.7990    9.4210 C.2      41   G    0.0000
   1315 O6          7.1110   -9.1220   10.3220 O.2      41   G    0.0000
   1316 N7          9.4800  -11.0510   10.6070 N.ar     41   G    0.0000
   1317 C8         10.3440  -11.9030   10.1270 C.ar     41   G    0.0000
   1318 N9         10.2190  -12.1340    8.7760 N.ar     41   G    0.0000
   1319 OP1        13.8370   -9.7460   11.5690 O.co2    41   G    0.0000
   1320 OP2        15.2860  -11.7210   12.3140 O.co2    41   G    0.0000
   1321 HO2'       12.1840  -12.8870    4.9990 H        41   G    0.0000
   1322 H1          6.3460   -9.1140    7.9620 H        41   G    0.0000
   1323 H8         11.0930  -12.3860   10.7370 H        41   G    0.0000
   1324 H1'        10.4240  -13.8720    7.6040 H        41   G    0.0000
   1325 H2'        11.3470  -11.4890    6.5490 H        41   G    0.0000
   1326 H21         6.2240   -9.5660    5.8310 H        41   G    0.0000
   1327 H3'        13.1520  -11.2390    8.0700 H        41   G    0.0000
   1328 H22         7.3140  -10.6870    5.0460 H        41   G    0.0000
   1329 H4'        13.7610  -14.1860    7.9260 H        41   G    0.0000
   1330 H5'        14.2340  -13.9480   10.2940 H        41   G    0.0000
   1331 H5''       15.1990  -12.7900    9.3520 H        41   G    0.0000
   1332 P          14.9790  -10.7100    6.2570 P.3      42   U    0.0000
   1333 C5'        13.5980  -10.7370    4.0300 C.3      42   U    0.0000
   1334 O5'        14.0140  -10.0280    5.1900 O.3      42   U    0.0000
   1335 C4'        12.7590   -9.8760    3.1260 C.3      42   U    0.0000
   1336 O4'        11.4840   -9.6140    3.7710 O.3      42   U    0.0000
   1337 C3'        13.3660   -8.5180    2.7840 C.3      42   U    0.0000
   1338 O3'        13.0580   -8.1790    1.4350 O.3      42   U    0.0000
   1339 C2'        12.6540   -7.5650    3.7310 C.3      42   U    0.0000
   1340 O2'        12.5530   -6.2400    3.2540 O.3      42   U    0.0000
   1341 C1'        11.2780   -8.2210    3.8960 C.3      42   U    0.0000
   1342 N1         10.6690   -7.9690    5.2200 N.am     42   U    0.0000
   1343 C2          9.4330   -7.3660    5.3270 C.2      42   U    0.0000
   1344 O2          8.7660   -7.0490    4.3580 O.2      42   U    0.0000
   1345 N3          8.9930   -7.1500    6.6130 N.am     42   U    0.0000
   1346 C4          9.6540   -7.4620    7.7840 C.2      42   U    0.0000
   1347 O4          9.1400   -7.2120    8.8740 O.2      42   U    0.0000
   1348 C5         10.9270   -8.0750    7.5890 C.2      42   U    0.0000
   1349 C6         11.3780   -8.2920    6.3510 C.2      42   U    0.0000
   1350 OP1        16.2770  -11.0350    5.6220 O.co2    42   U    0.0000
   1351 OP2        14.9770   -9.9210    7.5150 O.co2    42   U    0.0000
   1352 HO2'       13.4320   -5.8640    3.1640 H        42   U    0.0000
   1353 H3          8.0860   -6.7150    6.7110 H        42   U    0.0000
   1354 H5         11.5250   -8.3630    8.4410 H        42   U    0.0000
   1355 H6         12.3510   -8.7450    6.2330 H        42   U    0.0000
   1356 H1'        10.6070   -7.8750    3.1090 H        42   U    0.0000
   1357 H2'        13.1680   -7.5620    4.6920 H        42   U    0.0000
   1358 H3'        14.4420   -8.5130    2.9560 H        42   U    0.0000
   1359 H4'        12.5760  -10.4190    2.1990 H        42   U    0.0000
   1360 H5'        14.4810  -11.0680    3.4830 H        42   U    0.0000
   1361 H5''       13.0180  -11.6080    4.3330 H        42   U    0.0000
   1362 P          14.0260   -8.6700    0.2500 P.3      43   C    0.0000
   1363 C5'        15.2160   -6.3400    0.4120 C.3      43   C    0.0000
   1364 O5'        14.5350   -7.2990   -0.3820 O.3      43   C    0.0000
   1365 C4'        16.6310   -6.1150   -0.0740 C.3      43   C    0.0000
   1366 O4'        17.4760   -5.7710    1.0550 O.3      43   C    0.0000
   1367 C3'        17.3140   -7.3160   -0.7230 C.3      43   C    0.0000
   1368 O3'        17.0450   -7.4110   -2.1150 O.3      43   C    0.0000
   1369 C2'        18.7860   -7.0960   -0.4040 C.3      43   C    0.0000
   1370 O2'        19.3630   -6.1730   -1.3150 O.3      43   C    0.0000
   1371 C1'        18.7110   -6.4330    0.9660 C.3      43   C    0.0000
   1372 N1         18.7810   -7.4110    2.0680 N.am     43   C    0.0000
   1373 C2         20.0080   -7.8840    2.5360 C.2      43   C    0.0000
   1374 O2         21.0590   -7.5040    1.9960 O.2      43   C    0.0000
   1375 N3         20.0170   -8.7620    3.5620 N.2      43   C    0.0000
   1376 C4         18.8750   -9.1560    4.1230 C.2      43   C    0.0000
   1377 N4         18.9350  -10.0250    5.1320 N.pl3    43   C    0.0000
   1378 C5         17.6150   -8.6810    3.6760 C.2      43   C    0.0000
   1379 C6         17.6200   -7.8140    2.6620 C.2      43   C    0.0000
   1380 OP1        15.1640   -9.3860    0.8870 O.co2    43   C    0.0000
   1381 OP2        13.1810   -9.4070   -0.7350 O.co2    43   C    0.0000
   1382 HO2'       20.2920   -6.3820   -1.4360 H        43   C    0.0000
   1383 H5         16.6930   -9.0070    4.1360 H        43   C    0.0000
   1384 H6         16.6810   -7.4200    2.3020 H        43   C    0.0000
   1385 H1'        19.5200   -5.7100    1.0670 H        43   C    0.0000
   1386 H2'        19.3400   -8.0340   -0.3720 H        43   C    0.0000
   1387 H3'        16.9750   -8.2280   -0.2310 H        43   C    0.0000
   1388 H4'        16.6320   -5.2850   -0.7800 H        43   C    0.0000
   1389 H41        19.8310  -10.3660    5.4520 H        43   C    0.0000
   1390 H5'        14.6730   -5.3960    0.3680 H        43   C    0.0000
   1391 H42        18.0860  -10.3420    5.5770 H        43   C    0.0000
   1392 H5''       15.2450   -6.6870    1.4450 H        43   C    0.0000
   1393 P          17.4230   -8.7440   -2.9360 P.3      44   C    0.0000
   1394 C5'        19.9570   -8.3210   -3.4620 C.3      44   C    0.0000
   1395 O5'        18.9750   -8.9230   -2.6330 O.3      44   C    0.0000
   1396 C4'        21.2320   -9.1210   -3.4640 C.3      44   C    0.0000
   1397 O4'        21.8510   -9.0570   -2.1530 O.3      44   C    0.0000
   1398 C3'        21.0710  -10.6100   -3.7280 C.3      44   C    0.0000
   1399 O3'        20.9830  -10.9180   -5.1050 O.3      44   C    0.0000
   1400 C2'        22.2860  -11.2130   -3.0420 C.3      44   C    0.0000
   1401 O2'        23.4440  -11.0660   -3.8490 O.3      44   C    0.0000
   1402 C1'        22.4230  -10.3040   -1.8230 C.3      44   C    0.0000
   1403 N1         21.7050  -10.8430   -0.6540 N.am     44   C    0.0000
   1404 C2         22.3710  -11.6840    0.2380 C.2      44   C    0.0000
   1405 O2         23.5610  -11.9680    0.0260 O.2      44   C    0.0000
   1406 N3         21.6960  -12.1690    1.3060 N.2      44   C    0.0000
   1407 C4         20.4170  -11.8410    1.5020 C.2      44   C    0.0000
   1408 N4         19.7930  -12.3370    2.5730 N.pl3    44   C    0.0000
   1409 C5         19.7200  -10.9830    0.6070 C.2      44   C    0.0000
   1410 C6         20.3980  -10.5120   -0.4440 C.2      44   C    0.0000
   1411 OP1        17.2250   -8.4400   -4.3760 O.co2    44   C    0.0000
   1412 OP2        16.6550   -9.8630   -2.3310 O.co2    44   C    0.0000
   1413 HO2'       23.3720  -11.6330   -4.6200 H        44   C    0.0000
   1414 H5         18.6850  -10.7230    0.7700 H        44   C    0.0000
   1415 H6         19.9010   -9.8540   -1.1420 H        44   C    0.0000
   1416 H1'        23.4770  -10.1720   -1.5790 H        44   C    0.0000
   1417 H2'        22.1180  -12.2520   -2.7570 H        44   C    0.0000
   1418 H3'        20.1700  -10.9640   -3.2280 H        44   C    0.0000
   1419 H4'        21.9150   -8.7000   -4.2010 H        44   C    0.0000
   1420 H41        20.2870  -12.9450    3.2090 H        44   C    0.0000
   1421 H5'        20.1670   -7.3170   -3.0920 H        44   C    0.0000
   1422 H42        18.8250  -12.1030    2.7460 H        44   C    0.0000
   1423 H5''       19.5740   -8.2540   -4.4810 H        44   C    0.0000
   1424 P          20.3780  -12.3280   -5.5690 P.3      45   A    0.0000
   1425 C5'        21.1220  -14.7250   -4.8510 C.3      45   A    0.0000
   1426 O5'        21.0860  -13.3410   -4.5750 O.3      45   A    0.0000
   1427 C4'        22.1370  -15.4190   -3.9910 C.3      45   A    0.0000
   1428 O4'        22.3540  -14.6530   -2.7740 O.3      45   A    0.0000
   1429 C3'        21.7440  -16.7940   -3.4930 C.3      45   A    0.0000
   1430 O3'        21.9390  -17.8120   -4.4570 O.3      45   A    0.0000
   1431 C2'        22.5950  -16.9430   -2.2430 C.3      45   A    0.0000
   1432 O2'        23.9490  -17.2050   -2.5830 O.3      45   A    0.0000
   1433 C1'        22.5050  -15.5280   -1.6780 C.3      45   A    0.0000
   1434 N1         20.2770  -16.9200    2.7370 N.ar     45   A    0.0000
   1435 C2         21.4480  -17.2430    2.1720 C.ar     45   A    0.0000
   1436 N3         21.9660  -16.8380    1.0180 N.ar     45   A    0.0000
   1437 C4         21.1260  -15.9910    0.4020 C.ar     45   A    0.0000
   1438 C5         19.8860  -15.5650    0.8510 C.ar     45   A    0.0000
   1439 C6         19.4520  -16.0680    2.0920 C.ar     45   A    0.0000
   1440 N6         18.2870  -15.7620    2.6700 N.pl3    45   A    0.0000
   1441 N7         19.3120  -14.6910   -0.0620 N.ar     45   A    0.0000
   1442 C8         20.2030  -14.6150   -1.0230 C.ar     45   A    0.0000
   1443 N9         21.3280  -15.3730   -0.8040 N.ar     45   A    0.0000
   1444 OP1        18.9150  -12.2890   -5.2980 O.co2    45   A    0.0000
   1445 OP2        20.8440  -12.5700   -6.9610 O.co2    45   A    0.0000
   1446 HO2'       24.0240  -18.0920   -2.9410 H        45   A    0.0000
   1447 H2         22.0600  -17.9310    2.7370 H        45   A    0.0000
   1448 H8         20.0650  -14.0100   -1.9070 H        45   A    0.0000
   1449 H1'        23.4140  -15.2860   -1.1270 H        45   A    0.0000
   1450 H2'        22.1920  -17.6880   -1.5560 H        45   A    0.0000
   1451 H3'        20.6930  -16.7780   -3.2040 H        45   A    0.0000
   1452 H4'        23.0770  -15.4920   -4.5380 H        45   A    0.0000
   1453 H5'        20.1380  -15.1530   -4.6560 H        45   A    0.0000
   1454 H61        18.0460  -16.1650    3.5640 H        45   A    0.0000
   1455 H62        17.6470  -15.1280    2.2130 H        45   A    0.0000
   1456 H5''       21.3770  -14.8760   -5.9000 H        45   A    0.0000
   1457 P          20.7380  -18.8270   -4.7990 P.3      46   C    0.0000
   1458 C5'        22.0910  -20.3330   -3.1520 C.3      46   C    0.0000
   1459 O5'        20.8310  -19.8780   -3.6100 O.3      46   C    0.0000
   1460 C4'        21.9530  -21.1900   -1.9250 C.3      46   C    0.0000
   1461 O4'        21.7680  -20.3550   -0.7550 O.3      46   C    0.0000
   1462 C3'        20.7600  -22.1290   -1.9000 C.3      46   C    0.0000
   1463 O3'        20.9770  -23.3080   -2.6570 O.3      46   C    0.0000
   1464 C2'        20.5780  -22.3830   -0.4110 C.3      46   C    0.0000
   1465 O2'        21.5230  -23.3370    0.0550 O.3      46   C    0.0000
   1466 C1'        20.9420  -21.0160    0.1770 C.3      46   C    0.0000
   1467 N1         19.7510  -20.1810    0.4220 N.am     46   C    0.0000
   1468 C2         19.0380  -20.3850    1.6010 C.2      46   C    0.0000
   1469 O2         19.4330  -21.2610    2.3830 O.2      46   C    0.0000
   1470 N3         17.9420  -19.6310    1.8500 N.2      46   C    0.0000
   1471 C4         17.5620  -18.7010    0.9740 C.2      46   C    0.0000
   1472 N4         16.4810  -17.9820    1.2650 N.pl3    46   C    0.0000
   1473 C5         18.2730  -18.4670   -0.2360 C.2      46   C    0.0000
   1474 C6         19.3540  -19.2230   -0.4690 C.2      46   C    0.0000
   1475 OP1        21.0760  -19.4880   -6.0870 O.co2    46   C    0.0000
   1476 OP2        19.4690  -18.0610   -4.7020 O.co2    46   C    0.0000
   1477 HO2'       22.3380  -23.2490   -0.4450 H        46   C    0.0000
   1478 H5         17.9550  -17.7100   -0.9370 H        46   C    0.0000
   1479 H6         19.9210  -19.0740   -1.3760 H        46   C    0.0000
   1480 H1'        21.4860  -21.1560    1.1110 H        46   C    0.0000
   1481 H2'        19.5550  -22.6720   -0.1690 H        46   C    0.0000
   1482 H3'        19.8840  -21.6090   -2.2870 H        46   C    0.0000
   1483 H4'        22.8640  -21.7750   -1.8000 H        46   C    0.0000
   1484 H41        15.9790  -18.1510    2.1250 H        46   C    0.0000
   1485 H5'        22.7140  -19.4710   -2.9130 H        46   C    0.0000
   1486 H42        16.1620  -17.2670    0.6270 H        46   C    0.0000
   1487 H5''       22.5700  -20.9130   -3.9410 H        46   C    0.0000
   1488 P          19.7340  -24.1980   -3.1480 P.3      47   G    0.0000
   1489 C5'        19.8940  -25.6820   -0.9980 C.3      47   G    0.0000
   1490 O5'        19.1490  -24.7670   -1.7840 O.3      47   G    0.0000
   1491 C4'        19.1050  -26.1410    0.1960 C.3      47   G    0.0000
   1492 O4'        18.9490  -25.0400    1.1290 O.3      47   G    0.0000
   1493 C3'        17.6850  -26.6010   -0.0980 C.3      47   G    0.0000
   1494 O3'        17.6280  -27.9590   -0.5090 O.3      47   G    0.0000
   1495 C2'        16.9510  -26.3190    1.2120 C.3      47   G    0.0000
   1496 O2'        17.1930  -27.3490    2.1590 O.3      47   G    0.0000
   1497 C1'        17.6560  -25.0530    1.6890 C.3      47   G    0.0000
   1498 N1         14.0240  -21.6350    2.7370 N.am     47   G    0.0000
   1499 C2         14.3970  -22.7560    3.4400 C.2      47   G    0.0000
   1500 N2         13.7240  -23.0020    4.5730 N.pl3    47   G    0.0000
   1501 N3         15.3660  -23.5760    3.0630 N.2      47   G    0.0000
   1502 C4         15.9420  -23.1820    1.9090 C.ar     47   G    0.0000
   1503 C5         15.6420  -22.0840    1.1320 C.ar     47   G    0.0000
   1504 C6         14.6010  -21.2100    1.5450 C.2      47   G    0.0000
   1505 O6         14.1890  -20.1820    0.9870 O.2      47   G    0.0000
   1506 N7         16.4680  -22.0380    0.0160 N.ar     47   G    0.0000
   1507 C8         17.2340  -23.0910    0.1370 C.ar     47   G    0.0000
   1508 N9         16.9590  -23.8290    1.2590 N.ar     47   G    0.0000
   1509 OP1        20.2900  -25.3110   -3.9620 O.co2    47   G    0.0000
   1510 OP2        18.7540  -23.2760   -3.7750 O.co2    47   G    0.0000
   1511 HO2'       16.9190  -27.0520    3.0300 H        47   G    0.0000
   1512 H1         13.2720  -21.0770    3.1160 H        47   G    0.0000
   1513 H8         18.0030  -23.3520   -0.5740 H        47   G    0.0000
   1514 H1'        17.7300  -25.0660    2.7760 H        47   G    0.0000
   1515 H2'        15.8850  -26.1560    1.0530 H        47   G    0.0000
   1516 H21        12.9850  -22.3800    4.8680 H        47   G    0.0000
   1517 H3'        17.2630  -25.9740   -0.8830 H        47   G    0.0000
   1518 H22        13.9550  -23.8110    5.1330 H        47   G    0.0000
   1519 H4'        19.6450  -26.9490    0.6890 H        47   G    0.0000
   1520 H5'        20.1510  -26.5470   -1.6080 H        47   G    0.0000
   1521 H5''       20.8100  -25.1990   -0.6580 H        47   G    0.0000
   1522 P          16.5930  -28.4250   -1.6450 P.3      48   A    0.0000
   1523 C5'        15.1980  -29.3620    0.3590 C.3      48   A    0.0000
   1524 O5'        15.2400  -28.5910   -0.8310 O.3      48   A    0.0000
   1525 C4'        13.9140  -29.1340    1.1100 C.3      48   A    0.0000
   1526 O4'        13.8630  -27.7610    1.5710 O.3      48   A    0.0000
   1527 C3'        12.6390  -29.3100    0.3010 C.3      48   A    0.0000
   1528 O3'        12.2270  -30.6620    0.2150 O.3      48   A    0.0000
   1529 C2'        11.6450  -28.4140    1.0290 C.3      48   A    0.0000
   1530 O2'        11.1260  -29.0650    2.1800 O.3      48   A    0.0000
   1531 C1'        12.5460  -27.2690    1.4880 C.3      48   A    0.0000
   1532 N1         11.4050  -22.3160    0.8330 N.ar     48   A    0.0000
   1533 C2         11.2890  -23.1370    1.8830 C.ar     48   A    0.0000
   1534 N3         11.6060  -24.4220    1.9880 N.ar     48   A    0.0000
   1535 C4         12.1030  -24.8700    0.8230 C.ar     48   A    0.0000
   1536 C5         12.2850  -24.1550   -0.3420 C.ar     48   A    0.0000
   1537 C6         11.9110  -22.8040   -0.3190 C.ar     48   A    0.0000
   1538 N6         12.0280  -21.9880   -1.3680 N.pl3    48   A    0.0000
   1539 N7         12.8240  -24.9620   -1.3370 N.ar     48   A    0.0000
   1540 C8         12.9590  -26.1320   -0.7630 C.ar     48   A    0.0000
   1541 N9         12.5350  -26.1420    0.5420 N.ar     48   A    0.0000
   1542 OP1        16.4670  -27.3110   -2.6160 O.co2    48   A    0.0000
   1543 OP2        17.0520  -29.7470   -2.1360 O.co2    48   A    0.0000
   1544 HO2'       10.5570  -29.7890    1.9100 H        48   A    0.0000
   1545 H2         10.8770  -22.6890    2.7750 H        48   A    0.0000
   1546 H8         13.3620  -26.9980   -1.2650 H        48   A    0.0000
   1547 H1'        12.2240  -26.9240    2.4700 H        48   A    0.0000
   1548 H2'        10.8520  -28.0660    0.3670 H        48   A    0.0000
   1549 H3'        12.7980  -28.9220   -0.7050 H        48   A    0.0000
   1550 H4'        13.8830  -29.8000    1.9720 H        48   A    0.0000
   1551 H5'        15.2750  -30.4180    0.1010 H        48   A    0.0000
   1552 H61        12.4040  -22.3350   -2.2390 H        48   A    0.0000
   1553 H62        11.7410  -21.0220   -1.2920 H        48   A    0.0000
   1554 H5''       16.0390  -29.0860    0.9950 H        48   A    0.0000
   1555 P          12.0120  -31.3540   -1.2180 P.3      49   A    0.0000
   1556 C5'         9.4240  -31.0080   -0.9530 C.3      49   A    0.0000
   1557 O5'        10.6110  -30.7610   -1.6910 O.3      49   A    0.0000
   1558 C4'         8.2660  -30.2150   -1.5030 C.3      49   A    0.0000
   1559 O4'         8.5640  -28.8000   -1.4070 O.3      49   A    0.0000
   1560 C3'         7.9490  -30.4360   -2.9810 C.3      49   A    0.0000
   1561 O3'         7.1330  -31.5750   -3.2100 O.3      49   A    0.0000
   1562 C2'         7.2930  -29.1210   -3.3870 C.3      49   A    0.0000
   1563 O2'         5.9350  -29.0890   -2.9830 O.3      49   A    0.0000
   1564 C1'         8.0680  -28.1180   -2.5370 C.3      49   A    0.0000
   1565 N1          9.4880  -24.8970   -6.2540 N.ar     49   A    0.0000
   1566 C2          8.2900  -25.2630   -5.7850 C.ar     49   A    0.0000
   1567 N3          7.9950  -26.1130   -4.8080 N.ar     49   A    0.0000
   1568 C4          9.1190  -26.6240   -4.2810 C.ar     49   A    0.0000
   1569 C5         10.4240  -26.3530   -4.6510 C.ar     49   A    0.0000
   1570 C6         10.6000  -25.4330   -5.6970 C.ar     49   A    0.0000
   1571 N6         11.7940  -25.0690   -6.1680 N.pl3    49   A    0.0000
   1572 N7         11.3200  -27.0770   -3.8770 N.ar     49   A    0.0000
   1573 C8         10.5480  -27.7620   -3.0670 C.ar     49   A    0.0000
   1574 N9          9.2080  -27.5370   -3.2650 N.ar     49   A    0.0000
   1575 OP1        11.8910  -32.8150   -0.9820 O.co2    49   A    0.0000
   1576 OP2        13.0920  -30.8650   -2.1110 O.co2    49   A    0.0000
   1577 HO2'        5.4300  -29.7140   -3.5070 H        49   A    0.0000
   1578 H2          7.4420  -24.8030   -6.2700 H        49   A    0.0000
   1579 H8         10.9300  -28.4370   -2.3160 H        49   A    0.0000
   1580 H1'         7.3980  -27.3210   -2.2150 H        49   A    0.0000
   1581 H2'         7.4060  -28.9230   -4.4530 H        49   A    0.0000
   1582 H3'         8.8830  -30.5510   -3.5310 H        49   A    0.0000
   1583 H4'         7.3750  -30.4300   -0.9130 H        49   A    0.0000
   1584 H5'         9.1850  -32.0700   -1.0080 H        49   A    0.0000
   1585 H61        11.8570  -24.4030   -6.9250 H        49   A    0.0000
   1586 H62        12.6350  -25.4590   -5.7680 H        49   A    0.0000
   1587 H5''        9.5850  -30.7300    0.0880 H        49   A    0.0000
   1588 P           7.4580  -32.5790   -4.4270 P.3      50   U    0.0000
   1589 C5'         5.6140  -31.4270   -5.8960 C.3      50   U    0.0000
   1590 O5'         6.9810  -31.7530   -5.7050 O.3      50   U    0.0000
   1591 C4'         5.4390  -30.4220   -7.0060 C.3      50   U    0.0000
   1592 O4'         6.0990  -29.1810   -6.6510 O.3      50   U    0.0000
   1593 C3'         6.0510  -30.7960   -8.3480 C.3      50   U    0.0000
   1594 O3'         5.2260  -31.6620   -9.1040 O.3      50   U    0.0000
   1595 C2'         6.2740  -29.4420   -9.0090 C.3      50   U    0.0000
   1596 O2'         5.0660  -28.9520   -9.5760 O.3      50   U    0.0000
   1597 C1'         6.6310  -28.5690   -7.8070 C.3      50   U    0.0000
   1598 N1          8.0920  -28.4220   -7.6360 N.am     50   U    0.0000
   1599 C2          8.7250  -27.5160   -8.4630 C.2      50   U    0.0000
   1600 O2          8.1270  -26.8720   -9.3100 O.2      50   U    0.0000
   1601 N3         10.0800  -27.3990   -8.2670 N.am     50   U    0.0000
   1602 C4         10.8420  -28.0770   -7.3410 C.2      50   U    0.0000
   1603 O4         12.0530  -27.8590   -7.2850 O.2      50   U    0.0000
   1604 C5         10.1100  -28.9920   -6.5190 C.2      50   U    0.0000
   1605 C6          8.7920  -29.1310   -6.6870 C.2      50   U    0.0000
   1606 OP1         6.6000  -33.7760   -4.2480 O.co2    50   U    0.0000
   1607 OP2         8.9310  -32.7620   -4.4660 O.co2    50   U    0.0000
   1608 HO2'        4.8270  -29.4910  -10.3340 H        50   U    0.0000
   1609 H3         10.5680  -26.7480   -8.8650 H        50   U    0.0000
   1610 H5         10.6230  -29.5690   -5.7630 H        50   U    0.0000
   1611 H6          8.2560  -29.8240   -6.0550 H        50   U    0.0000
   1612 H1'         6.1820  -27.5830   -7.9310 H        50   U    0.0000
   1613 H2'         7.0820  -29.4750   -9.7400 H        50   U    0.0000
   1614 H3'         7.0150  -31.2760   -8.1800 H        50   U    0.0000
   1615 H4'         4.3750  -30.2290   -7.1430 H        50   U    0.0000
   1616 H5'         5.0660  -32.3340   -6.1500 H        50   U    0.0000
   1617 H5''        5.2130  -31.0130   -4.9710 H        50   U    0.0000
   1618 P           5.8720  -32.6450  -10.1960 P.3      51   C    0.0000
   1619 C5'         5.6340  -31.0720  -12.2790 C.3      51   C    0.0000
   1620 O5'         6.4650  -31.6390  -11.2780 O.3      51   C    0.0000
   1621 C4'         6.4220  -30.2040  -13.2260 C.3      51   C    0.0000
   1622 O4'         7.1310  -29.1780  -12.4790 O.3      51   C    0.0000
   1623 C3'         7.5200  -30.8990  -14.0170 C.3      51   C    0.0000
   1624 O3'         7.0340  -31.6050  -15.1450 O.3      51   C    0.0000
   1625 C2'         8.4480  -29.7460  -14.3670 C.3      51   C    0.0000
   1626 O2'         7.9020  -28.9650  -15.4210 O.3      51   C    0.0000
   1627 C1'         8.3840  -28.9260  -13.0820 C.3      51   C    0.0000
   1628 N1          9.4480  -29.3130  -12.1320 N.am     51   C    0.0000
   1629 C2         10.6970  -28.6990  -12.2350 C.2      51   C    0.0000
   1630 O2         10.8710  -27.8480  -13.1190 O.2      51   C    0.0000
   1631 N3         11.6810  -29.0480  -11.3730 N.2      51   C    0.0000
   1632 C4         11.4500  -29.9710  -10.4370 C.2      51   C    0.0000
   1633 N4         12.4460  -30.2860   -9.6060 N.pl3    51   C    0.0000
   1634 C5         10.1870  -30.6130  -10.3090 C.2      51   C    0.0000
   1635 C6          9.2240  -30.2580  -11.1690 C.2      51   C    0.0000
   1636 OP1         4.7580  -33.4240  -10.7910 O.co2    51   C    0.0000
   1637 OP2         6.9790  -33.3770   -9.5280 O.co2    51   C    0.0000
   1638 HO2'        8.6040  -28.7050  -16.0220 H        51   C    0.0000
   1639 H5         10.0110  -31.3580   -9.5460 H        51   C    0.0000
   1640 H6          8.2530  -30.7260  -11.1010 H        51   C    0.0000
   1641 H1'         8.4720  -27.8650  -13.3180 H        51   C    0.0000
   1642 H2'         9.4600  -30.0850  -14.5880 H        51   C    0.0000
   1643 H3'         8.0450  -31.5930  -13.3610 H        51   C    0.0000
   1644 H4'         5.7340  -29.7230  -13.9220 H        51   C    0.0000
   1645 H41        13.3430  -29.8300   -9.6970 H        51   C    0.0000
   1646 H5'         5.1630  -31.8760  -12.8450 H        51   C    0.0000
   1647 H42        12.3030  -30.9800   -8.8870 H        51   C    0.0000
   1648 H5''        4.8610  -30.4700  -11.8030 H        51   C    0.0000
   1649 P           7.9250  -32.7620  -15.8200 P.3      52   C    0.0000
   1650 C5'         9.0030  -31.1250  -17.5620 C.3      52   C    0.0000
   1651 O5'         9.1580  -31.9550  -16.4210 O.3      52   C    0.0000
   1652 C4'        10.3380  -30.7280  -18.1390 C.3      52   C    0.0000
   1653 O4'        11.0290  -29.8460  -17.2120 O.3      52   C    0.0000
   1654 C3'        11.3270  -31.8600  -18.3670 C.3      52   C    0.0000
   1655 O3'        11.0890  -32.5800  -19.5630 O.3      52   C    0.0000
   1656 C2'        12.6630  -31.1370  -18.3430 C.3      52   C    0.0000
   1657 O2'        12.8760  -30.4370  -19.5600 O.3      52   C    0.0000
   1658 C1'        12.4160  -30.1150  -17.2380 C.3      52   C    0.0000
   1659 N1         12.8160  -30.6330  -15.9120 N.am     52   C    0.0000
   1660 C2         14.1340  -30.4660  -15.4760 C.2      52   C    0.0000
   1661 O2         14.9420  -29.8840  -16.2150 O.2      52   C    0.0000
   1662 N3         14.4940  -30.9430  -14.2610 N.2      52   C    0.0000
   1663 C4         13.5950  -31.5640  -13.4930 C.2      52   C    0.0000
   1664 N4         13.9860  -32.0210  -12.3010 N.pl3    52   C    0.0000
   1665 C5         12.2470  -31.7480  -13.9150 C.2      52   C    0.0000
   1666 C6         11.9060  -31.2720  -15.1190 C.2      52   C    0.0000
   1667 OP1         8.3890  -33.6560  -14.7290 O.co2    52   C    0.0000
   1668 OP2         7.1180  -33.3440  -16.9200 O.co2    52   C    0.0000
   1669 HO2'       13.7600  -30.6230  -19.8850 H        52   C    0.0000
   1670 H5         11.5280  -32.2520  -13.2880 H        52   C    0.0000
   1671 H6         10.8910  -31.3950  -15.4690 H        52   C    0.0000
   1672 H1'        12.9650  -29.1980  -17.4560 H        52   C    0.0000
   1673 H2'        13.4880  -31.8080  -18.1050 H        52   C    0.0000
   1674 H3'        11.2800  -32.5480  -17.5230 H        52   C    0.0000
   1675 H4'        10.1770  -30.2000  -19.0790 H        52   C    0.0000
   1676 H41        14.9420  -31.8930  -11.9990 H        52   C    0.0000
   1677 H5'         8.4360  -31.6670  -18.3200 H        52   C    0.0000
   1678 H42        13.3270  -32.4950  -11.7000 H        52   C    0.0000
   1679 H5''        8.4540  -30.2270  -17.2790 H        52   C    0.0000
   1680 P          11.5630  -34.1090  -19.6810 P.3      53   A    0.0000
   1681 C5'        13.6930  -33.2220  -20.9170 C.3      53   A    0.0000
   1682 O5'        13.1390  -33.9770  -19.8520 O.3      53   A    0.0000
   1683 C4'        15.1940  -33.1330  -20.8080 C.3      53   A    0.0000
   1684 O4'        15.5570  -32.3050  -19.6740 O.3      53   A    0.0000
   1685 C3'        15.9200  -34.4420  -20.5520 C.3      53   A    0.0000
   1686 O3'        16.0990  -35.2120  -21.7270 O.3      53   A    0.0000
   1687 C2'        17.2250  -33.9780  -19.9210 C.3      53   A    0.0000
   1688 O2'        18.1220  -33.5050  -20.9140 O.3      53   A    0.0000
   1689 C1'        16.7510  -32.7840  -19.0910 C.3      53   A    0.0000
   1690 N1         18.7270  -33.3630  -14.3660 N.ar     53   A    0.0000
   1691 C2         19.2670  -32.9890  -15.5340 C.ar     53   A    0.0000
   1692 N3         18.6940  -32.8600  -16.7280 N.ar     53   A    0.0000
   1693 C4         17.3880  -33.1680  -16.6610 C.ar     53   A    0.0000
   1694 C5         16.6870  -33.5700  -15.5350 C.ar     53   A    0.0000
   1695 C6         17.4110  -33.6690  -14.3300 C.ar     53   A    0.0000
   1696 N6         16.8760  -34.0440  -13.1620 N.pl3    53   A    0.0000
   1697 N7         15.3530  -33.8010  -15.8510 N.ar     53   A    0.0000
   1698 C8         15.2800  -33.5410  -17.1350 C.ar     53   A    0.0000
   1699 N9         16.4760  -33.1560  -17.6900 N.ar     53   A    0.0000
   1700 OP1        11.2480  -34.7630  -18.3880 O.co2    53   A    0.0000
   1701 OP2        10.9640  -34.6580  -20.9230 O.co2    53   A    0.0000
   1702 HO2'       19.0070  -33.8250  -20.7230 H        53   A    0.0000
   1703 H2         20.3220  -32.7580  -15.5010 H        53   A    0.0000
   1704 H8         14.3650  -33.6230  -17.7030 H        53   A    0.0000
   1705 H1'        17.5080  -32.0000  -19.1170 H        53   A    0.0000
   1706 H2'        17.6760  -34.7520  -19.3000 H        53   A    0.0000
   1707 H3'        15.3580  -35.0260  -19.8230 H        53   A    0.0000
   1708 H4'        15.5890  -32.6810  -21.7180 H        53   A    0.0000
   1709 H5'        13.4350  -33.7000  -21.8620 H        53   A    0.0000
   1710 H61        17.4540  -34.0930  -12.3350 H        53   A    0.0000
   1711 H62        15.8950  -34.2780  -13.1070 H        53   A    0.0000
   1712 H5''       13.2730  -32.2170  -20.8990 H        53   A    0.0000
   1713 P          16.1830  -36.8120  -21.6320 P.3      54   U    0.0000
   1714 C5'        18.7950  -36.5990  -21.6130 C.3      54   U    0.0000
   1715 O5'        17.6130  -37.0500  -20.9700 O.3      54   U    0.0000
   1716 C4'        20.0340  -37.0610  -20.8880 C.3      54   U    0.0000
   1717 O4'        20.2860  -36.2080  -19.7430 O.3      54   U    0.0000
   1718 C3'        19.9810  -38.4610  -20.2970 C.3      54   U    0.0000
   1719 O3'        20.2030  -39.4780  -21.2600 O.3      54   U    0.0000
   1720 C2'        21.0480  -38.4020  -19.2090 C.3      54   U    0.0000
   1721 O2'        22.3450  -38.5720  -19.7650 O.3      54   U    0.0000
   1722 C1'        20.9140  -36.9550  -18.7200 C.3      54   U    0.0000
   1723 N1         20.1000  -36.8570  -17.4880 N.am     54   U    0.0000
   1724 C2         20.7510  -36.5460  -16.3030 C.2      54   U    0.0000
   1725 O2         21.9530  -36.3440  -16.2340 O.2      54   U    0.0000
   1726 N3         19.9450  -36.4790  -15.1920 N.am     54   U    0.0000
   1727 C4         18.5790  -36.6850  -15.1500 C.2      54   U    0.0000
   1728 O4         17.9890  -36.5890  -14.0730 O.2      54   U    0.0000
   1729 C5         17.9790  -37.0010  -16.4130 C.2      54   U    0.0000
   1730 C6         18.7420  -37.0760  -17.5110 C.2      54   U    0.0000
   1731 OP1        16.1750  -37.3330  -23.0210 O.co2    54   U    0.0000
   1732 OP2        15.1170  -37.2490  -20.6990 O.co2    54   U    0.0000
   1733 HO2'       22.4440  -39.4750  -20.0760 H        54   U    0.0000
   1734 HO3'       20.1590  -40.3370  -20.8340 H        54   U    0.0000
   1735 H3         20.3970  -36.2560  -14.3170 H        54   U    0.0000
   1736 H5         16.9150  -37.1770  -16.4790 H        54   U    0.0000
   1737 H6         18.2720  -37.3190  -18.4520 H        54   U    0.0000
   1738 H1'        21.9060  -36.5450  -18.5300 H        54   U    0.0000
   1739 H2'        20.8530  -39.1190  -18.4110 H        54   U    0.0000
   1740 H3'        19.0070  -38.6160  -19.8330 H        54   U    0.0000
   1741 H4'        20.8830  -36.9980  -21.5670 H        54   U    0.0000
   1742 H5'        18.8160  -36.9890  -22.6310 H        54   U    0.0000
   1743 H5''       18.7890  -35.5090  -21.6490 H        54   U    0.0000
   1744 PA         23.7770  -27.8170   -7.2880 P.3      55 GTP    0.0000
   1745 PB         26.4320  -27.9560   -6.3830 P.3      55 GTP    0.0000
   1746 C5'        23.8010  -27.4210   -9.7960 C.3      55 GTP    0.0000
   1747 O5'        23.0890  -27.8540   -8.7390 O.3      55 GTP    0.0000
   1748 C4'        23.5560  -27.9650  -11.1440 C.3      55 GTP    0.0000
   1749 O4'        22.9500  -29.2320  -11.1130 O.3      55 GTP    0.0000
   1750 C3'        22.5700  -27.1350  -11.8590 C.3      55 GTP    0.0000
   1751 O3'        23.1500  -25.9600  -12.3430 O.3      55 GTP    0.0000
   1752 C2'        22.1640  -27.9800  -12.9050 C.3      55 GTP    0.0000
   1753 O2'        23.0790  -27.9310  -13.9370 O.3      55 GTP    0.0000
   1754 C1'        22.1790  -29.3380  -12.2720 C.3      55 GTP    0.0000
   1755 N1         17.3830  -30.0330  -14.0690 N.ar     55 GTP    0.0000
   1756 O1A        23.8040  -26.3880   -6.7600 O.co2    55 GTP    0.0000
   1757 O1B        26.3050  -28.7910   -5.1380 O.co2    55 GTP    0.0000
   1758 C2         18.4700  -29.5530  -14.7100 C.ar     55 GTP    0.0000
   1759 N2         18.3810  -29.1570  -16.0570 N.pl3    55 GTP    0.0000
   1760 O2A        23.0050  -28.6790   -6.3610 O.co2    55 GTP    0.0000
   1761 O2B        26.3380  -26.4970   -6.0340 O.co2    55 GTP    0.0000
   1762 N3         19.6450  -29.4480  -14.0810 N.ar     55 GTP    0.0000
   1763 O3A        25.2390  -28.3540   -7.4360 O.3      55 GTP    0.0000
   1764 O3B        27.8110  -28.2500   -7.0300 O.co2    55 GTP    0.0000
   1765 C4         19.7820  -29.8180  -12.7880 C.ar     55 GTP    0.0000
   1766 C5         18.6720  -30.3190  -12.0990 C.ar     55 GTP    0.0000
   1767 C6         17.4540  -30.4210  -12.7750 C.ar     55 GTP    0.0000
   1768 O6         16.3410  -30.9150  -12.1210 O.3      55 GTP    0.0000
   1769 N7         19.0800  -30.6090  -10.8400 N.ar     55 GTP    0.0000
   1770 C8         20.3910  -30.3040  -10.7400 C.ar     55 GTP    0.0000
   1771 N9         20.8250  -29.8280  -11.9250 N.ar     55 GTP    0.0000
   1772 HN21       17.5020  -29.2300  -16.5490 H        55 GTP    0.0000
   1773 HN22       19.1970  -28.7990  -16.5330 H        55 GTP    0.0000
   1774 HO2'       22.7930  -28.5110  -14.6460 H        55 GTP    0.0000
   1775 H6         16.2810  -30.5190  -11.2480 H        55 GTP    0.0000
   1776 H8         20.9950  -30.4230   -9.8530 H        55 GTP    0.0000
   1777 H1'        22.6510  -30.0450  -12.9530 H        55 GTP    0.0000
   1778 H2'        21.1640  -27.7210  -13.2540 H        55 GTP    0.0000
   1779 H3'        21.7260  -26.9020  -11.2090 H        55 GTP    0.0000
   1780 H4'        24.4880  -28.0090  -11.7060 H        55 GTP    0.0000
   1781 H5'        23.6380  -26.3450   -9.8600 H        55 GTP    0.0000
   1782 H5''       24.8550  -27.5780   -9.5660 H        55 GTP    0.0000
   1783 P          22.4340  -24.5480  -12.0740 P.3      56   G    0.0000
   1784 C5'        21.4870  -24.6020  -14.5190 C.3      56   G    0.0000
   1785 O5'        21.2340  -24.5560  -13.1220 O.3      56   G    0.0000
   1786 C4'        20.2100  -24.7410  -15.3130 C.3      56   G    0.0000
   1787 O4'        19.6940  -26.0920  -15.1920 O.3      56   G    0.0000
   1788 C3'        19.0500  -23.8660  -14.8730 C.3      56   G    0.0000
   1789 O3'        19.1530  -22.5340  -15.3420 O.3      56   G    0.0000
   1790 C2'        17.8420  -24.6200  -15.4190 C.3      56   G    0.0000
   1791 O2'        17.6820  -24.3750  -16.8090 O.3      56   G    0.0000
   1792 C1'        18.2820  -26.0720  -15.2310 C.3      56   G    0.0000
   1793 N1         14.1660  -27.6480  -12.6890 N.am     56   G    0.0000
   1794 C2         14.2610  -27.1260  -13.9570 C.2      56   G    0.0000
   1795 N2         13.1150  -27.0040  -14.6450 N.pl3    56   G    0.0000
   1796 N3         15.4020  -26.7500  -14.5120 N.2      56   G    0.0000
   1797 C4         16.4560  -26.9440  -13.6880 C.ar     56   G    0.0000
   1798 C5         16.4660  -27.4560  -12.4060 C.ar     56   G    0.0000
   1799 C6         15.2360  -27.8550  -11.8210 C.2      56   G    0.0000
   1800 O6         15.0390  -28.3340  -10.6970 O.2      56   G    0.0000
   1801 N7         17.7590  -27.4870  -11.8990 N.ar     56   G    0.0000
   1802 C8         18.4960  -27.0000  -12.8610 C.ar     56   G    0.0000
   1803 N9         17.7700  -26.6470  -13.9740 N.ar     56   G    0.0000
   1804 OP1        21.8980  -24.5880  -10.6920 O.co2    56   G    0.0000
   1805 OP2        23.4100  -23.4890  -12.4290 O.co2    56   G    0.0000
   1806 HO2'       16.7560  -24.2090  -17.0000 H        56   G    0.0000
   1807 H1         13.2460  -27.9020  -12.3600 H        56   G    0.0000
   1808 H8         19.5680  -26.8850  -12.7890 H        56   G    0.0000
   1809 H1'        17.9340  -26.6690  -16.0730 H        56   G    0.0000
   1810 H2'        16.9340  -24.3940  -14.8600 H        56   G    0.0000
   1811 H21        12.2420  -27.2900  -14.2260 H        56   G    0.0000
   1812 H3'        19.0020  -23.8580  -13.7840 H        56   G    0.0000
   1813 H22        13.1260  -26.6270  -15.5810 H        56   G    0.0000
   1814 H4'        20.4240  -24.5390  -16.3630 H        56   G    0.0000
   1815 H5'        21.9890  -23.6820  -14.8180 H        56   G    0.0000
   1816 H5''       22.1360  -25.4500  -14.7370 H        56   G    0.0000
   1817 P          18.5880  -21.3180  -14.4570 P.3      57   A    0.0000
   1818 C5'        16.3660  -21.5860  -15.8150 C.3      57   A    0.0000
   1819 O5'        17.0140  -21.5190  -14.5540 O.3      57   A    0.0000
   1820 C4'        14.9070  -21.9340  -15.6700 C.3      57   A    0.0000
   1821 O4'        14.7660  -23.3230  -15.2690 O.3      57   A    0.0000
   1822 C3'        14.1400  -21.1680  -14.6050 C.3      57   A    0.0000
   1823 O3'        13.7580  -19.8680  -15.0230 O.3      57   A    0.0000
   1824 C2'        12.9670  -22.0960  -14.3140 C.3      57   A    0.0000
   1825 O2'        11.9770  -21.9870  -15.3260 O.3      57   A    0.0000
   1826 C1'        13.6320  -23.4690  -14.4380 C.3      57   A    0.0000
   1827 N1         12.1780  -25.6090   -9.9600 N.ar     57   A    0.0000
   1828 C2         11.4830  -25.2020  -11.0310 C.ar     57   A    0.0000
   1829 N3         11.9220  -24.6520  -12.1620 N.ar     57   A    0.0000
   1830 C4         13.2620  -24.5270  -12.1440 C.ar     57   A    0.0000
   1831 C5         14.1140  -24.8980  -11.1160 C.ar     57   A    0.0000
   1832 C6         13.5240  -25.4690   -9.9710 C.ar     57   A    0.0000
   1833 N6         14.2160  -25.8740   -8.9010 N.pl3    57   A    0.0000
   1834 N7         15.4340  -24.6170  -11.4490 N.ar     57   A    0.0000
   1835 C8         15.3540  -24.0920  -12.6490 C.ar     57   A    0.0000
   1836 N9         14.0710  -23.9990  -13.1310 N.ar     57   A    0.0000
   1837 OP1        18.9790  -20.0610  -15.1420 O.co2    57   A    0.0000
   1838 OP2        19.0420  -21.5410  -13.0620 O.co2    57   A    0.0000
   1839 HO2'       11.5470  -21.1310  -15.2640 H        57   A    0.0000
   1840 H2         10.4130  -25.3390  -10.9670 H        57   A    0.0000
   1841 H8         16.2190  -23.7630  -13.2070 H        57   A    0.0000
   1842 H1'        12.9340  -24.1700  -14.8970 H        57   A    0.0000
   1843 H2'        12.5530  -21.9310  -13.3180 H        57   A    0.0000
   1844 H3'        14.7590  -21.0860  -13.7110 H        57   A    0.0000
   1845 H4'        14.4130  -21.7930  -16.6310 H        57   A    0.0000
   1846 H5'        16.4510  -20.6180  -16.3080 H        57   A    0.0000
   1847 H61        13.7330  -26.2750   -8.1100 H        57   A    0.0000
   1848 H62        15.2210  -25.7790   -8.8850 H        57   A    0.0000
   1849 H5''       16.8540  -22.3430  -16.4280 H        57   A    0.0000
   1850 P          13.2590  -18.7850  -13.9430 P.3      58   U    0.0000
   1851 C5'        11.0090  -18.7360  -12.6140 C.3      58   U    0.0000
   1852 O5'        11.7260  -19.1640  -13.7550 O.3      58   U    0.0000
   1853 C4'        10.4070  -19.9010  -11.8750 C.3      58   U    0.0000
   1854 O4'        11.3400  -21.0070  -11.8520 O.3      58   U    0.0000
   1855 C3'        10.0880  -19.6570  -10.4130 C.3      58   U    0.0000
   1856 O3'         8.8680  -18.9710  -10.2320 O.3      58   U    0.0000
   1857 C2'        10.0970  -21.0610   -9.8190 C.3      58   U    0.0000
   1858 O2'         8.8580  -21.7130  -10.0550 O.3      58   U    0.0000
   1859 C1'        11.1750  -21.7490  -10.6620 C.3      58   U    0.0000
   1860 N1         12.4830  -21.8360   -9.9630 N.am     58   U    0.0000
   1861 C2         12.5310  -22.4160   -8.7050 C.2      58   U    0.0000
   1862 O2         11.5460  -22.8370   -8.1230 O.2      58   U    0.0000
   1863 N3         13.7870  -22.4770   -8.1400 N.am     58   U    0.0000
   1864 C4         14.9790  -22.0430   -8.6910 C.2      58   U    0.0000
   1865 O4         16.0300  -22.1720   -8.0530 O.2      58   U    0.0000
   1866 C5         14.8500  -21.4690   -9.9970 C.2      58   U    0.0000
   1867 C6         13.6410  -21.3950  -10.5720 C.2      58   U    0.0000
   1868 OP1        14.0010  -19.0430  -12.6860 O.co2    58   U    0.0000
   1869 OP2        13.3730  -17.4490  -14.5750 O.co2    58   U    0.0000
   1870 HO2'        8.1710  -21.2930   -9.5330 H        58   U    0.0000
   1871 H3         13.8420  -22.8870   -7.2180 H        58   U    0.0000
   1872 H5         15.7210  -21.0990  -10.5170 H        58   U    0.0000
   1873 H6         13.5690  -20.9680  -11.5610 H        58   U    0.0000
   1874 H1'        10.8400  -22.7550  -10.9140 H        58   U    0.0000
   1875 H2'        10.3550  -21.0510   -8.7600 H        58   U    0.0000
   1876 H3'        10.8940  -19.0750   -9.9650 H        58   U    0.0000
   1877 H4'         9.4980  -20.2140  -12.3890 H        58   U    0.0000
   1878 H5'        10.2110  -18.0640  -12.9280 H        58   U    0.0000
   1879 H5''       11.6850  -18.2010  -11.9470 H        58   U    0.0000
   1880 P           8.8670  -17.4940   -9.6130 P.3      59   U    0.0000
   1881 C5'         7.5410  -18.7210   -7.7090 C.3      59   U    0.0000
   1882 O5'         8.5230  -17.7620   -8.0810 O.3      59   U    0.0000
   1883 C4'         7.9350  -19.4530   -6.4500 C.3      59   U    0.0000
   1884 O4'         9.0790  -20.2990   -6.7190 O.3      59   U    0.0000
   1885 C3'         8.3660  -18.5750   -5.2840 C.3      59   U    0.0000
   1886 O3'         7.2640  -18.1280   -4.5090 O.3      59   U    0.0000
   1887 C2'         9.3290  -19.4660   -4.5010 C.3      59   U    0.0000
   1888 O2'         8.6170  -20.3070   -3.6060 O.3      59   U    0.0000
   1889 C1'         9.9350  -20.3400   -5.6010 C.3      59   U    0.0000
   1890 N1         11.2840  -19.8880   -6.0240 N.am     59   U    0.0000
   1891 C2         12.3660  -20.6840   -5.6810 C.2      59   U    0.0000
   1892 O2         12.2500  -21.7000   -5.0160 O.2      59   U    0.0000
   1893 N3         13.5930  -20.2410   -6.1260 N.am     59   U    0.0000
   1894 C4         13.8450  -19.1110   -6.8820 C.2      59   U    0.0000
   1895 O4         15.0050  -18.8370   -7.2120 O.2      59   U    0.0000
   1896 C5         12.6710  -18.3520   -7.2080 C.2      59   U    0.0000
   1897 C6         11.4640  -18.7570   -6.7880 C.2      59   U    0.0000
   1898 OP1        10.2500  -16.9670   -9.7420 O.co2    59   U    0.0000
   1899 OP2         7.7570  -16.7500  -10.2580 O.co2    59   U    0.0000
   1900 HO2'        8.2290  -19.7750   -2.9070 H        59   U    0.0000
   1901 H3         14.3930  -20.8020   -5.8730 H        59   U    0.0000
   1902 H5         12.7610  -17.4490   -7.7940 H        59   U    0.0000
   1903 H6         10.5970  -18.1720   -7.0590 H        59   U    0.0000
   1904 H1'        10.0010  -21.3670   -5.2420 H        59   U    0.0000
   1905 H2'        10.0910  -18.8810   -3.9850 H        59   U    0.0000
   1906 H3'         8.9080  -17.7120   -5.6670 H        59   U    0.0000
   1907 H4'         7.1020  -20.0790   -6.1310 H        59   U    0.0000
   1908 H5'         7.4260  -19.4420   -8.5180 H        59   U    0.0000
   1909 H5''        6.5900  -18.2140   -7.5450 H        59   U    0.0000
   1910 P           6.5970  -16.6920   -4.7860 P.3      60   G    0.0000
   1911 C5'         7.4940  -14.2930   -4.2390 C.3      60   G    0.0000
   1912 O5'         7.7490  -15.6820   -4.3530 O.3      60   G    0.0000
   1913 C4'         6.7010  -13.9790   -2.9960 C.3      60   G    0.0000
   1914 O4'         6.9210  -15.0040   -2.0020 O.3      60   G    0.0000
   1915 C3'         7.0550  -12.6760   -2.3060 C.3      60   G    0.0000
   1916 O3'         6.3460  -11.5820   -2.8510 O.3      60   G    0.0000
   1917 C2'         6.7220  -12.9380   -0.8420 C.3      60   G    0.0000
   1918 O2'         5.3490  -12.6820   -0.5910 O.3      60   G    0.0000
   1919 C1'         6.9610  -14.4410   -0.7140 C.3      60   G    0.0000
   1920 N1          9.5400  -16.0080    3.4430 N.am     60   G    0.0000
   1921 C2          8.2040  -15.7240    3.3150 C.2      60   G    0.0000
   1922 N2          7.4660  -15.8890    4.4230 N.pl3    60   G    0.0000
   1923 N3          7.6370  -15.3120    2.1870 N.2      60   G    0.0000
   1924 C4          8.5240  -15.2010    1.1750 C.ar     60   G    0.0000
   1925 C5          9.8780  -15.4580    1.2050 C.ar     60   G    0.0000
   1926 C6         10.4740  -15.9010    2.4160 C.2      60   G    0.0000
   1927 O6         11.6630  -16.1760    2.6270 O.2      60   G    0.0000
   1928 N7         10.4530  -15.2250   -0.0340 N.ar     60   G    0.0000
   1929 C8          9.4570  -14.8410   -0.7840 C.ar     60   G    0.0000
   1930 N9          8.2630  -14.7760   -0.1110 N.ar     60   G    0.0000
   1931 OP1         6.3570  -16.5890   -6.2480 O.co2    60   G    0.0000
   1932 OP2         5.4390  -16.5650   -3.8660 O.co2    60   G    0.0000
   1933 HO2'        5.1740  -11.7440   -0.7000 H        60   G    0.0000
   1934 H1          9.8700  -16.3160    4.3460 H        60   G    0.0000
   1935 H8          9.5620  -14.5970   -1.8310 H        60   G    0.0000
   1936 H1'         6.1660  -14.8780   -0.1100 H        60   G    0.0000
   1937 H2'         7.3680  -12.3690   -0.1730 H        60   G    0.0000
   1938 H21         7.9020  -16.2030    5.2780 H        60   G    0.0000
   1939 H3'         8.1260  -12.4960   -2.4050 H        60   G    0.0000
   1940 H22         6.4740  -15.6990    4.4010 H        60   G    0.0000
   1941 H4'         5.6420  -13.9620   -3.2530 H        60   G    0.0000
   1942 H5'         6.9300  -13.9630   -5.1110 H        60   G    0.0000
   1943 H5''        8.4420  -13.7560   -4.2020 H        60   G    0.0000
   1944 P           7.1330  -10.3240   -3.4490 P.3      61   A    0.0000
   1945 C5'         5.6950   -8.9750   -1.7340 C.3      61   A    0.0000
   1946 O5'         6.9680   -9.2380   -2.3020 O.3      61   A    0.0000
   1947 C4'         5.7980   -8.7380   -0.2560 C.3      61   A    0.0000
   1948 O4'         6.1870   -9.9640    0.4050 O.3      61   A    0.0000
   1949 C3'         6.8430   -7.7240    0.1720 C.3      61   A    0.0000
   1950 O3'         6.3610   -6.3950    0.1030 O.3      61   A    0.0000
   1951 C2'         7.2010   -8.1660    1.5880 C.3      61   A    0.0000
   1952 O2'         6.2740   -7.6450    2.5280 O.3      61   A    0.0000
   1953 C1'         7.0100   -9.6810    1.5100 C.3      61   A    0.0000
   1954 N1         10.3210  -12.9120    3.7370 N.ar     61   A    0.0000
   1955 C2          9.1750  -12.3590    4.1480 C.ar     61   A    0.0000
   1956 N3          8.3660  -11.5200    3.5070 N.ar     61   A    0.0000
   1957 C4          8.8440  -11.2400    2.2820 C.ar     61   A    0.0000
   1958 C5         10.0070  -11.7270    1.7150 C.ar     61   A    0.0000
   1959 C6         10.7720  -12.6130    2.5030 C.ar     61   A    0.0000
   1960 N6         11.9180  -13.1700    2.1070 N.pl3    61   A    0.0000
   1961 N7         10.1730  -11.2130    0.4330 N.ar     61   A    0.0000
   1962 C8          9.1220  -10.4430    0.2570 C.ar     61   A    0.0000
   1963 N9          8.2830  -10.4070    1.3420 N.ar     61   A    0.0000
   1964 OP1         6.3990   -9.8920   -4.6640 O.co2    61   A    0.0000
   1965 OP2         8.5590  -10.7130   -3.5770 O.co2    61   A    0.0000
   1966 HO2'        6.5160   -6.7430    2.7500 H        61   A    0.0000
   1967 H2          8.8620  -12.6320    5.1450 H        61   A    0.0000
   1968 H8          8.9370   -9.8910   -0.6530 H        61   A    0.0000
   1969 H1'         6.5190  -10.0270    2.4200 H        61   A    0.0000
   1970 H2'         8.2270   -7.9020    1.8450 H        61   A    0.0000
   1971 H3'         7.7210   -7.8220   -0.4670 H        61   A    0.0000
   1972 H4'         4.8250   -8.4250    0.1220 H        61   A    0.0000
   1973 H5'         5.2710   -8.0900   -2.2070 H        61   A    0.0000
   1974 H61        12.4160  -13.7950    2.7250 H        61   A    0.0000
   1975 H62        12.2880  -12.9670    1.1890 H        61   A    0.0000
   1976 H5''        5.0390   -9.8270   -1.9150 H        61   A    0.0000
   1977 P           7.2510   -5.2280   -0.5510 P.3      62   U    0.0000
   1978 C5'         8.4540   -4.9560    1.7710 C.3      62   U    0.0000
   1979 O5'         8.5510   -5.2170    0.3730 O.3      62   U    0.0000
   1980 C4'         8.5090   -3.4770    2.0640 C.3      62   U    0.0000
   1981 O4'         8.2390   -3.2530    3.4770 O.3      62   U    0.0000
   1982 C3'         9.8520   -2.8080    1.7830 C.3      62   U    0.0000
   1983 O3'         9.6200   -1.4540    1.3990 O.3      62   U    0.0000
   1984 C2'        10.5100   -2.8300    3.1560 C.3      62   U    0.0000
   1985 O2'        11.5440   -1.8880    3.3300 O.3      62   U    0.0000
   1986 C1'         9.3110   -2.5260    4.0440 C.3      62   U    0.0000
   1987 N1          9.4730   -2.9390    5.4510 N.am     62   U    0.0000
   1988 C2          8.6400   -2.3230    6.3640 C.2      62   U    0.0000
   1989 O2          7.8080   -1.4950    6.0400 O.2      62   U    0.0000
   1990 N3          8.8110   -2.7170    7.6630 N.am     62   U    0.0000
   1991 C4          9.7150   -3.6400    8.1350 C.2      62   U    0.0000
   1992 O4          9.7420   -3.8840    9.3420 O.2      62   U    0.0000
   1993 C5         10.5430   -4.2310    7.1310 C.2      62   U    0.0000
   1994 C6         10.4040   -3.8660    5.8500 C.2      62   U    0.0000
   1995 OP1         7.6110   -5.6670   -1.9250 O.co2    62   U    0.0000
   1996 OP2         6.4930   -3.9590   -0.3790 O.co2    62   U    0.0000
   1997 HO2'       12.2810   -2.1110    2.7550 H        62   U    0.0000
   1998 H3          8.2090   -2.2830    8.3490 H        62   U    0.0000
   1999 H5         11.2800   -4.9700    7.4050 H        62   U    0.0000
   2000 H6         11.0450   -4.3160    5.1070 H        62   U    0.0000
   2001 H1'         9.0890   -1.4590    4.0020 H        62   U    0.0000
   2002 H2'        10.8830   -3.8310    3.3710 H        62   U    0.0000
   2003 H3'        10.4350   -3.3510    1.0400 H        62   U    0.0000
   2004 H4'         7.7390   -2.9760    1.4770 H        62   U    0.0000
   2005 H5'         7.5090   -5.3550    2.1400 H        62   U    0.0000
   2006 H5''        9.2760   -5.4530    2.2850 H        62   U    0.0000
   2007 P          10.2990   -0.8490    0.0790 P.3      63   U    0.0000
   2008 C5'        10.7250    1.3680    1.4230 C.3      63   U    0.0000
   2009 O5'        10.1390    0.7210    0.2990 O.3      63   U    0.0000
   2010 C4'         9.7000    2.1450    2.2080 C.3      63   U    0.0000
   2011 O4'         9.0400    1.2690    3.1590 O.3      63   U    0.0000
   2012 C3'        10.2340    3.2800    3.0660 C.3      63   U    0.0000
   2013 O3'        10.4870    4.4610    2.3230 O.3      63   U    0.0000
   2014 C2'         9.1390    3.4390    4.1180 C.3      63   U    0.0000
   2015 O2'         8.0290    4.1530    3.5930 O.3      63   U    0.0000
   2016 C1'         8.7170    1.9890    4.3310 C.3      63   U    0.0000
   2017 N1          9.4200    1.3760    5.4700 N.am     63   U    0.0000
   2018 C2          8.8880    1.6100    6.7160 C.2      63   U    0.0000
   2019 O2          7.8890    2.2840    6.8860 O.2      63   U    0.0000
   2020 N3          9.5760    1.0250    7.7490 N.am     63   U    0.0000
   2021 C4         10.7150    0.2530    7.6600 C.2      63   U    0.0000
   2022 O4         11.2180   -0.2070    8.6870 O.2      63   U    0.0000
   2023 C5         11.2020    0.0590    6.3310 C.2      63   U    0.0000
   2024 C6         10.5520    0.6170    5.3050 C.2      63   U    0.0000
   2025 OP1        11.7380   -1.2210    0.1150 O.co2    63   U    0.0000
   2026 OP2         9.4780   -1.2830   -1.0800 O.co2    63   U    0.0000
   2027 HO2'        7.2990    4.1110    4.2140 H        63   U    0.0000
   2028 H3          9.2080    1.1780    8.6770 H        63   U    0.0000
   2029 H5         12.0880   -0.5330    6.1560 H        63   U    0.0000
   2030 H6         10.9320    0.4640    4.3060 H        63   U    0.0000
   2031 H1'         7.6410    1.9440    4.5010 H        63   U    0.0000
   2032 H2'         9.5180    3.8920    5.0340 H        63   U    0.0000
   2033 H3'        11.1550    2.9590    3.5530 H        63   U    0.0000
   2034 H4'         8.9550    2.5430    1.5190 H        63   U    0.0000
   2035 H5'        11.1720    0.6150    2.0710 H        63   U    0.0000
   2036 H5''       11.5020    2.0490    1.0770 H        63   U    0.0000
   2037 P          11.6780    5.4570    2.7470 P.3      64   U    0.0000
   2038 C5'         9.9490    6.9610    4.0150 C.3      64   U    0.0000
   2039 O5'        11.1120    6.1500    4.0650 O.3      64   U    0.0000
   2040 C4'         9.5210    7.4100    5.3910 C.3      64   U    0.0000
   2041 O4'         9.0380    6.2750    6.1560 O.3      64   U    0.0000
   2042 C3'        10.6090    8.0030    6.2720 C.3      64   U    0.0000
   2043 O3'        10.9170    9.3500    5.9590 O.3      64   U    0.0000
   2044 C2'        10.0310    7.8160    7.6680 C.3      64   U    0.0000
   2045 O2'         9.0330    8.7930    7.9360 O.3      64   U    0.0000
   2046 C1'         9.3520    6.4540    7.5240 C.3      64   U    0.0000
   2047 N1         10.2390    5.3540    7.9580 N.am     64   U    0.0000
   2048 C2         10.4010    5.2150    9.3190 C.2      64   U    0.0000
   2049 O2          9.8460    5.9430   10.1190 O.2      64   U    0.0000
   2050 N3         11.2300    4.2000    9.7180 N.am     64   U    0.0000
   2051 C4         11.9060    3.3240    8.9010 C.2      64   U    0.0000
   2052 O4         12.6170    2.4570    9.4200 O.2      64   U    0.0000
   2053 C5         11.6900    3.5330    7.4960 C.2      64   U    0.0000
   2054 C6         10.8840    4.5180    7.0780 C.2      64   U    0.0000
   2055 OP1        11.8040    6.4620    1.6660 O.co2    64   U    0.0000
   2056 OP2        12.8570    4.6240    3.0830 O.co2    64   U    0.0000
   2057 HO2'        9.4450    9.6550    8.0290 H        64   U    0.0000
   2058 H3         11.3590    4.0840   10.7130 H        64   U    0.0000
   2059 H5         12.1780    2.8940    6.7750 H        64   U    0.0000
   2060 H6         10.7380    4.6600    6.0180 H        64   U    0.0000
   2061 H1'         8.4360    6.4390    8.1140 H        64   U    0.0000
   2062 H2'        10.8080    7.8060    8.4330 H        64   U    0.0000
   2063 H3'        11.5120    7.4000    6.1770 H        64   U    0.0000
   2064 H4'         8.7150    8.1370    5.2900 H        64   U    0.0000
   2065 H5'        10.1580    7.8410    3.4060 H        64   U    0.0000
   2066 H5''        9.1390    6.3950    3.5570 H        64   U    0.0000
   2067 P          12.4040    9.9130    6.2060 P.3      65   G    0.0000
   2068 C5'        11.7390   10.9790    8.5050 C.3      65   G    0.0000
   2069 O5'        12.4870   10.0040    7.7970 O.3      65   G    0.0000
   2070 C4'        11.8220   10.7760    9.9980 C.3      65   G    0.0000
   2071 O4'        11.3280    9.4580   10.3500 O.3      65   G    0.0000
   2072 C3'        13.2120   10.8060   10.6100 C.3      65   G    0.0000
   2073 O3'        13.7350   12.1090   10.7680 O.3      65   G    0.0000
   2074 C2'        12.9930   10.0760   11.9240 C.3      65   G    0.0000
   2075 O2'        12.3170   10.9100   12.8550 O.3      65   G    0.0000
   2076 C1'        12.0370    8.9730   11.4800 C.3      65   G    0.0000
   2077 N1         14.5170    4.8830   13.1920 N.am     65   G    0.0000
   2078 C2         13.8970    5.8920   13.8880 C.2      65   G    0.0000
   2079 N2         13.9430    5.8110   15.2240 N.pl3    65   G    0.0000
   2080 N3         13.2790    6.9100   13.3170 N.2      65   G    0.0000
   2081 C4         13.3240    6.8420   11.9700 C.ar     65   G    0.0000
   2082 C5         13.9150    5.8820   11.1790 C.ar     65   G    0.0000
   2083 C6         14.5780    4.7880   11.8040 C.2      65   G    0.0000
   2084 O6         15.1640    3.8300   11.2770 O.2      65   G    0.0000
   2085 N7         13.7370    6.1840    9.8350 N.ar     65   G    0.0000
   2086 C8         13.0580    7.2990    9.8330 C.ar     65   G    0.0000
   2087 N9         12.7680    7.7480   11.0960 N.ar     65   G    0.0000
   2088 OP1        12.4590   11.2760    5.6160 O.co2    65   G    0.0000
   2089 OP2        13.3500    8.8800    5.7080 O.co2    65   G    0.0000
   2090 HO2'       12.6710   10.7600   13.7350 H        65   G    0.0000
   2091 H1         14.9630    4.1520   13.7280 H        65   G    0.0000
   2092 H8         12.7570    7.8140    8.9330 H        65   G    0.0000
   2093 H1'        11.3370    8.7480   12.2840 H        65   G    0.0000
   2094 H2'        13.9220    9.6750   12.3310 H        65   G    0.0000
   2095 H21        14.4150    5.0360   15.6670 H        65   G    0.0000
   2096 H3'        13.8890   10.2230    9.9860 H        65   G    0.0000
   2097 H22        13.5050    6.5250   15.7880 H        65   G    0.0000
   2098 H4'        11.2040   11.5270   10.4900 H        65   G    0.0000
   2099 H5'        10.6950   10.9130    8.1980 H        65   G    0.0000
   2100 H5''       12.1210   11.9690    8.2580 H        65   G    0.0000
   2101 P          15.3230   12.3200   10.8610 P.3      66   G    0.0000
   2102 C5'        15.2720   12.0140   13.4660 C.3      66   G    0.0000
   2103 O5'        15.7060   11.5440   12.1990 O.3      66   G    0.0000
   2104 C4'        15.8240   11.1670   14.5860 C.3      66   G    0.0000
   2105 O4'        15.2750    9.8280   14.5040 O.3      66   G    0.0000
   2106 C3'        17.3270   10.9470   14.5750 C.3      66   G    0.0000
   2107 O3'        18.0540   12.0330   15.1170 O.3      66   G    0.0000
   2108 C2'        17.4780    9.6550   15.3670 C.3      66   G    0.0000
   2109 O2'        17.3480    9.9000   16.7600 O.3      66   G    0.0000
   2110 C1'        16.2480    8.8830   14.9010 C.3      66   G    0.0000
   2111 N1         18.1610    4.4180   13.4140 N.am     66   G    0.0000
   2112 C2         18.0350    4.9280   14.6830 C.2      66   G    0.0000
   2113 N2         18.4720    4.1520   15.6920 N.pl3    66   G    0.0000
   2114 N3         17.5130    6.1160   14.9420 N.2      66   G    0.0000
   2115 C4         17.1270    6.7560   13.8170 C.ar     66   G    0.0000
   2116 C5         17.2150    6.3320   12.5100 C.ar     66   G    0.0000
   2117 C6         17.7690    5.0610   12.2450 C.2      66   G    0.0000
   2118 O6         17.9270    4.5130   11.1470 O.2      66   G    0.0000
   2119 N7         16.7110    7.2860   11.6400 N.ar     66   G    0.0000
   2120 C8         16.3290    8.2620   12.4200 C.ar     66   G    0.0000
   2121 N9         16.5530    8.0060   13.7530 N.ar     66   G    0.0000
   2122 OP1        15.9210   11.6310    9.6900 O.co2    66   G    0.0000
   2123 OP2        15.5630   13.7740   11.0330 O.co2    66   G    0.0000
   2124 HO2'       17.2870    9.0630   17.2270 H        66   G    0.0000
   2125 H1         18.5730    3.5000   13.3220 H        66   G    0.0000
   2126 H8         15.8830    9.1750   12.0560 H        66   G    0.0000
   2127 H1'        15.8600    8.2840   15.7240 H        66   G    0.0000
   2128 H2'        18.4040    9.1330   15.1270 H        66   G    0.0000
   2129 H21        18.8690    3.2450   15.4960 H        66   G    0.0000
   2130 H3'        17.6550   10.7760   13.5500 H        66   G    0.0000
   2131 H22        18.4020    4.4770   16.6460 H        66   G    0.0000
   2132 H4'        15.5370   11.6100   15.5400 H        66   G    0.0000
   2133 H5'        15.6110   13.0420   13.5990 H        66   G    0.0000
   2134 H5''       14.1830   11.9890   13.5030 H        66   G    0.0000
   2135 P          19.5020   12.4010   14.5370 P.3      67   U    0.0000
   2136 C5'        20.5950   11.0900   16.5300 C.3      67   U    0.0000
   2137 O5'        20.4240   11.2440   15.1270 O.3      67   U    0.0000
   2138 C4'        21.4110    9.8640   16.8630 C.3      67   U    0.0000
   2139 O4'        20.6620    8.6650   16.5360 O.3      67   U    0.0000
   2140 C3'        22.7170    9.6980   16.1020 C.3      67   U    0.0000
   2141 O3'        23.7670   10.4820   16.6290 O.3      67   U    0.0000
   2142 C2'        22.9730    8.2010   16.2010 C.3      67   U    0.0000
   2143 O2'        23.5310    7.8700   17.4650 O.3      67   U    0.0000
   2144 C1'        21.5500    7.6410   16.1320 C.3      67   U    0.0000
   2145 N1         21.1980    7.2170   14.7600 N.am     67   U    0.0000
   2146 C2         21.6790    5.9820   14.3800 C.2      67   U    0.0000
   2147 O2         22.3350    5.2900   15.1410 O.2      67   U    0.0000
   2148 N3         21.3620    5.5990   13.0970 N.am     67   U    0.0000
   2149 C4         20.6290    6.3240   12.1800 C.2      67   U    0.0000
   2150 O4         20.4250    5.8480   11.0640 O.2      67   U    0.0000
   2151 C5         20.1730    7.5980   12.6510 C.2      67   U    0.0000
   2152 C6         20.4660    7.9950   13.8940 C.2      67   U    0.0000
   2153 OP1        19.4260   12.2810   13.0610 O.co2    67   U    0.0000
   2154 OP2        19.8870   13.7030   15.1280 O.co2    67   U    0.0000
   2155 HO2'       24.4250    8.2150   17.5210 H        67   U    0.0000
   2156 H3         21.6990    4.6960   12.7970 H        67   U    0.0000
   2157 H5         19.5920    8.2360   12.0020 H        67   U    0.0000
   2158 H6         20.1160    8.9610   14.2280 H        67   U    0.0000
   2159 H1'        21.4600    6.7920   16.8090 H        67   U    0.0000
   2160 H2'        23.5910    7.8400   15.3780 H        67   U    0.0000
   2161 H3'        22.5590    9.9670   15.0570 H        67   U    0.0000
   2162 H4'        21.6250    9.8640   17.9320 H        67   U    0.0000
   2163 H5'        21.1040   11.9700   16.9220 H        67   U    0.0000
   2164 H5''       19.6150   11.0050   17.0010 H        67   U    0.0000
   2165 P          24.7650   11.2620   15.6410 P.3      68   G    0.0000
   2166 C5'        26.4720    9.3010   15.9860 C.3      68   G    0.0000
   2167 O5'        25.7110   10.1020   15.0980 O.3      68   G    0.0000
   2168 C4'        26.9640    8.0500   15.3050 C.3      68   G    0.0000
   2169 O4'        25.8330    7.2230   14.9150 O.3      68   G    0.0000
   2170 C3'        27.7270    8.2580   14.0100 C.3      68   G    0.0000
   2171 O3'        29.0790    8.6210   14.2210 O.3      68   G    0.0000
   2172 C2'        27.5540    6.9190   13.3010 C.3      68   G    0.0000
   2173 O2'        28.4530    5.9540   13.8240 O.3      68   G    0.0000
   2174 C1'        26.1330    6.5310   13.7180 C.3      68   G    0.0000
   2175 N1         23.7990    5.1220    9.4260 N.am     68   G    0.0000
   2176 C2         24.7540    4.4680   10.1590 C.2      68   G    0.0000
   2177 N2         25.1520    3.2760    9.6950 N.pl3    68   G    0.0000
   2178 N3         25.2840    4.9430   11.2690 N.2      68   G    0.0000
   2179 C4         24.7760    6.1470   11.5980 C.ar     68   G    0.0000
   2180 C5         23.8210    6.8860   10.9350 C.ar     68   G    0.0000
   2181 C6         23.2570    6.3630    9.7440 C.2      68   G    0.0000
   2182 O6         22.3950    6.8650    9.0130 O.2      68   G    0.0000
   2183 N7         23.5710    8.0760   11.6010 N.ar     68   G    0.0000
   2184 C8         24.3670    8.0380   12.6360 C.ar     68   G    0.0000
   2185 N9         25.1320    6.8970   12.6950 N.ar     68   G    0.0000
   2186 OP1        25.5510   12.2090   16.4760 O.co2    68   G    0.0000
   2187 OP2        23.9450   11.8040   14.5280 O.co2    68   G    0.0000
   2188 HO2'       29.2220    5.8890   13.2530 H        68   G    0.0000
   2189 H1         23.4610    4.6680    8.5890 H        68   G    0.0000
   2190 H8         24.4190    8.8250   13.3730 H        68   G    0.0000
   2191 H1'        26.0880    5.4580   13.9000 H        68   G    0.0000
   2192 H2'        27.6480    7.0160   12.2200 H        68   G    0.0000
   2193 H21        24.7500    2.9050    8.8450 H        68   G    0.0000
   2194 H3'        27.2350    9.0360   13.4270 H        68   G    0.0000
   2195 H22        25.8530    2.7480   10.1940 H        68   G    0.0000
   2196 H4'        27.5890    7.4900   16.0000 H        68   G    0.0000
   2197 H5'        25.8490    9.0220   16.8350 H        68   G    0.0000
   2198 H5''       27.3280    9.8750   16.3420 H        68   G    0.0000
   2199 P          29.7700    9.7360   13.2890 P.3      69   A    0.0000
   2200 C5'        30.6130    9.4830   10.8230 C.3      69   A    0.0000
   2201 O5'        30.3370    8.8770   12.0740 O.3      69   A    0.0000
   2202 C4'        31.0650    8.4660    9.8110 C.3      69   A    0.0000
   2203 O4'        32.1850    7.7190   10.3450 O.3      69   A    0.0000
   2204 C3'        30.0460    7.4010    9.4410 C.3      69   A    0.0000
   2205 O3'        29.1240    7.8430    8.4570 O.3      69   A    0.0000
   2206 C2'        30.9210    6.2390    8.9850 C.3      69   A    0.0000
   2207 O2'        31.3560    6.4310    7.6470 O.3      69   A    0.0000
   2208 C1'        32.1310    6.3810    9.9090 C.3      69   A    0.0000
   2209 N1         32.7590    1.6260   11.8140 N.ar     69   A    0.0000
   2210 C2         32.9330    2.1320   10.5860 C.ar     69   A    0.0000
   2211 N3         32.7540    3.3780   10.1540 N.ar     69   A    0.0000
   2212 C4         32.3380    4.1720   11.1560 C.ar     69   A    0.0000
   2213 C5         32.1090    3.8000   12.4670 C.ar     69   A    0.0000
   2214 C6         32.3390    2.4530   12.7960 C.ar     69   A    0.0000
   2215 N6         32.1600    1.9560   14.0220 N.pl3    69   A    0.0000
   2216 N7         31.6820    4.8850   13.2210 N.ar     69   A    0.0000
   2217 C8         31.6640    5.8760   12.3630 C.ar     69   A    0.0000
   2218 N9         32.0380    5.5110   11.0940 N.ar     69   A    0.0000
   2219 OP1        30.8950   10.3200   14.0630 O.co2    69   A    0.0000
   2220 OP2        28.6870   10.6350   12.8120 O.co2    69   A    0.0000
   2221 HO2'       30.6080    6.3450    7.0510 H        69   A    0.0000
   2222 H2         33.2670    1.4270    9.8380 H        69   A    0.0000
   2223 H8         31.3810    6.8840   12.6300 H        69   A    0.0000
   2224 H1'        33.0390    6.1440    9.3550 H        69   A    0.0000
   2225 H2'        30.4220    5.2790    9.1150 H        69   A    0.0000
   2226 H3'        29.4980    7.1050   10.3360 H        69   A    0.0000
   2227 H4'        31.3820    8.9830    8.9060 H        69   A    0.0000
   2228 H5'        29.7090    9.9700   10.4570 H        69   A    0.0000
   2229 H61        32.3400    0.9780   14.2020 H        69   A    0.0000
   2230 H62        31.8460    2.5570   14.7700 H        69   A    0.0000
   2231 H5''       31.3950   10.2310   10.9520 H        69   A    0.0000
   2232 P          27.5560    7.5280    8.6140 P.3      70   A    0.0000
   2233 C5'        27.8300    5.6350    6.8220 C.3      70   A    0.0000
   2234 O5'        27.4550    6.0130    8.1380 O.3      70   A    0.0000
   2235 C4'        28.1770    4.1710    6.7490 C.3      70   A    0.0000
   2236 O4'        29.2630    3.8860    7.6630 O.3      70   A    0.0000
   2237 C3'        27.0650    3.2100    7.1510 C.3      70   A    0.0000
   2238 O3'        26.1940    2.9070    6.0720 O.3      70   A    0.0000
   2239 C2'        27.8210    1.9950    7.6840 C.3      70   A    0.0000
   2240 O2'        28.2070    1.1390    6.6200 O.3      70   A    0.0000
   2241 C1'        29.0780    2.6320    8.2740 C.3      70   A    0.0000
   2242 N1         29.5930    0.5460   13.0050 N.ar     70   A    0.0000
   2243 C2         29.7370    0.0330   11.7740 C.ar     70   A    0.0000
   2244 N3         29.5880    0.6210   10.5850 N.ar     70   A    0.0000
   2245 C4         29.2480    1.9140   10.7250 C.ar     70   A    0.0000
   2246 C5         29.0610    2.5880   11.9200 C.ar     70   A    0.0000
   2247 C6         29.2530    1.8560   13.1040 C.ar     70   A    0.0000
   2248 N6         29.1040    2.4010   14.3130 N.pl3    70   A    0.0000
   2249 N7         28.7030    3.9080   11.6990 N.ar     70   A    0.0000
   2250 C8         28.6850    4.0050   10.3900 C.ar     70   A    0.0000
   2251 N9         28.9870    2.8340    9.7350 N.ar     70   A    0.0000
   2252 OP1        26.8350    8.4040    7.6600 O.co2    70   A    0.0000
   2253 OP2        27.2340    7.6310   10.0550 O.co2    70   A    0.0000
   2254 HO2'       27.4270    0.7300    6.2380 H        70   A    0.0000
   2255 H2         30.0130   -1.0110   11.7400 H        70   A    0.0000
   2256 H8         28.4540    4.9250    9.8730 H        70   A    0.0000
   2257 H1'        29.9370    1.9970    8.0540 H        70   A    0.0000
   2258 H2'        27.2450    1.4630    8.4410 H        70   A    0.0000
   2259 H3'        26.4870    3.6540    7.9620 H        70   A    0.0000
   2260 H4'        28.4980    3.9350    5.7340 H        70   A    0.0000
   2261 H5'        27.0010    5.8380    6.1450 H        70   A    0.0000
   2262 H61        29.2480    1.8400   15.1400 H        70   A    0.0000
   2263 H62        28.8480    3.3740   14.4000 H        70   A    0.0000
   2264 H5''       28.6950    6.2230    6.5140 H        70   A    0.0000
   2265 P          24.6110    3.1140    6.2190 P.3      71   A    0.0000
   2266 C5'        24.7870    0.7740    7.3570 C.3      71   A    0.0000
   2267 O5'        24.2390    2.0830    7.3620 O.3      71   A    0.0000
   2268 C4'        23.7470   -0.2590    7.6810 C.3      71   A    0.0000
   2269 O4'        23.6700   -0.4080    9.1180 O.3      71   A    0.0000
   2270 C3'        22.3420    0.0620    7.1810 C.3      71   A    0.0000
   2271 O3'        21.7810   -1.0720    6.5320 O.3      71   A    0.0000
   2272 C2'        21.5440    0.3950    8.4440 C.3      71   A    0.0000
   2273 O2'        20.2130   -0.0780    8.4280 O.3      71   A    0.0000
   2274 C1'        22.3450   -0.2550    9.5740 C.3      71   A    0.0000
   2275 N1         23.4300    0.0460   14.6390 N.ar     71   A    0.0000
   2276 C2         23.5040   -0.9720   13.7690 C.ar     71   A    0.0000
   2277 N3         23.2140   -0.9990   12.4680 N.ar     71   A    0.0000
   2278 C4         22.7900    0.2080   12.0530 C.ar     71   A    0.0000
   2279 C5         22.6570    1.3480   12.8260 C.ar     71   A    0.0000
   2280 C6         23.0000    1.2460   14.1850 C.ar     71   A    0.0000
   2281 N6         22.9180    2.2680   15.0420 N.pl3    71   A    0.0000
   2282 N7         22.1850    2.4110   12.0700 N.ar     71   A    0.0000
   2283 C8         22.0520    1.8980   10.8750 C.ar     71   A    0.0000
   2284 N9         22.3920    0.5680   10.7880 N.ar     71   A    0.0000
   2285 OP1        23.9930    2.6920    4.9400 O.co2    71   A    0.0000
   2286 OP2        24.3910    4.4980    6.6960 O.co2    71   A    0.0000
   2287 HO2'       19.6180    0.6510    8.2370 H        71   A    0.0000
   2288 H2         23.8490   -1.9080   14.1830 H        71   A    0.0000
   2289 H8         21.7030    2.4700   10.0280 H        71   A    0.0000
   2290 H1'        21.9220   -1.2320    9.8090 H        71   A    0.0000
   2291 H2'        21.5370    1.4750    8.5870 H        71   A    0.0000
   2292 H3'        22.3630    0.9170    6.5060 H        71   A    0.0000
   2293 H4'        24.0580   -1.2110    7.2510 H        71   A    0.0000
   2294 H5'        25.5830    0.7200    8.1000 H        71   A    0.0000
   2295 H61        23.1760    2.1380   16.0100 H        71   A    0.0000
   2296 H62        22.5970    3.1710   14.7220 H        71   A    0.0000
   2297 H5''       25.2030    0.5640    6.3720 H        71   A    0.0000
   2298 P          21.5780   -1.0540    4.9370 P.3      72   U    0.0000
   2299 C5'        19.3500    0.2650    5.3360 C.3      72   U    0.0000
   2300 O5'        20.0070   -0.8660    4.7820 O.3      72   U    0.0000
   2301 C4'        17.8940   -0.0160    5.6090 C.3      72   U    0.0000
   2302 O4'        17.1660   -0.0360    4.3520 O.3      72   U    0.0000
   2303 C3'        17.6050   -1.3530    6.2990 C.3      72   U    0.0000
   2304 O3'        16.5890   -1.1800    7.2810 O.3      72   U    0.0000
   2305 C2'        17.0720   -2.2290    5.1710 C.3      72   U    0.0000
   2306 O2'        16.1740   -3.2300    5.5900 O.3      72   U    0.0000
   2307 C1'        16.3840   -1.2080    4.2770 C.3      72   U    0.0000
   2308 N1         16.2860   -1.6290    2.8610 N.am     72   U    0.0000
   2309 C2         15.1840   -1.2250    2.1270 C.2      72   U    0.0000
   2310 O2         14.3030   -0.5010    2.5800 O.2      72   U    0.0000
   2311 N3         15.1630   -1.6750    0.8290 N.am     72   U    0.0000
   2312 C4         16.0990   -2.4760    0.2080 C.2      72   U    0.0000
   2313 O4         15.9410   -2.8010   -0.9700 O.2      72   U    0.0000
   2314 C5         17.1960   -2.8580    1.0430 C.2      72   U    0.0000
   2315 C6         17.2470   -2.4390    2.3110 C.2      72   U    0.0000
   2316 OP1        21.9810   -2.3870    4.4300 O.co2    72   U    0.0000
   2317 OP2        22.2800    0.1480    4.4200 O.co2    72   U    0.0000
   2318 HO2'       16.6340   -3.8590    6.1520 H        72   U    0.0000
   2319 H3         14.3750   -1.3870    0.2660 H        72   U    0.0000
   2320 H5         17.9820   -3.4850    0.6480 H        72   U    0.0000
   2321 H6         18.0790   -2.7500    2.9260 H        72   U    0.0000
   2322 H1'        15.3860   -1.0030    4.6630 H        72   U    0.0000
   2323 H2'        17.9050   -2.6840    4.6350 H        72   U    0.0000
   2324 H3'        18.5100   -1.7770    6.7360 H        72   U    0.0000
   2325 H4'        17.4960    0.7870    6.2290 H        72   U    0.0000
   2326 H5'        19.8400    0.5350    6.2720 H        72   U    0.0000
   2327 H5''       19.4280    1.1000    4.6390 H        72   U    0.0000
   2328 P          16.9730   -1.2010    8.8380 P.3      73   U    0.0000
   2329 C5'        17.1580   -3.8090    8.9560 C.3      73   U    0.0000
   2330 O5'        17.8140   -2.5480    8.9770 O.3      73   U    0.0000
   2331 C4'        17.8030   -4.8090    9.8890 C.3      73   U    0.0000
   2332 O4'        18.9600   -5.4080    9.2400 O.3      73   U    0.0000
   2333 C3'        18.2900   -4.2550   11.2290 C.3      73   U    0.0000
   2334 O3'        18.0190   -5.2080   12.2570 O.3      73   U    0.0000
   2335 C2'        19.8020   -4.1480   11.0260 C.3      73   U    0.0000
   2336 O2'        20.5600   -4.2260   12.2140 O.3      73   U    0.0000
   2337 C1'        20.0760   -5.3310   10.1010 C.3      73   U    0.0000
   2338 N1         21.2950   -5.1880    9.2730 N.am     73   U    0.0000
   2339 C2         22.3270   -6.0820    9.4890 C.2      73   U    0.0000
   2340 O2         22.2730   -6.9710   10.3230 O.2      73   U    0.0000
   2341 N3         23.4320   -5.9060    8.6970 N.am     73   U    0.0000
   2342 C4         23.6080   -4.9460    7.7290 C.2      73   U    0.0000
   2343 O4         24.6620   -4.9150    7.0980 O.2      73   U    0.0000
   2344 C5         22.5000   -4.0600    7.5640 C.2      73   U    0.0000
   2345 C6         21.4080   -4.2080    8.3210 C.2      73   U    0.0000
   2346 OP1        17.8470   -0.0260    9.0850 O.co2    73   U    0.0000
   2347 OP2        15.7050   -1.3200    9.6050 O.co2    73   U    0.0000
   2348 HO2'       20.3630   -5.0500   12.6670 H        73   U    0.0000
   2349 H3         24.1980   -6.5500    8.8390 H        73   U    0.0000
   2350 H5         22.5440   -3.2710    6.8270 H        73   U    0.0000
   2351 H6         20.5820   -3.5280    8.1780 H        73   U    0.0000
   2352 H1'        20.1430   -6.2450   10.6910 H        73   U    0.0000
   2353 H2'        20.0350   -3.2180   10.5060 H        73   U    0.0000
   2354 H3'        17.8430   -3.2860   11.4510 H        73   U    0.0000
   2355 H4'        17.0800   -5.5990   10.0910 H        73   U    0.0000
   2356 H5'        16.1200   -3.6690    9.2570 H        73   U    0.0000
   2357 H5''       17.1830   -4.2050    7.9410 H        73   U    0.0000
   2358 P          17.2050   -4.7750   13.5750 P.3      74   C    0.0000
   2359 C5'        18.8790   -4.4860   15.5750 C.3      74   C    0.0000
   2360 O5'        18.2860   -3.9510   14.4010 O.3      74   C    0.0000
   2361 C4'        19.5000   -3.3970   16.4110 C.3      74   C    0.0000
   2362 O4'        20.3400   -2.5680   15.5690 O.3      74   C    0.0000
   2363 C3'        18.5210   -2.4290   17.0670 C.3      74   C    0.0000
   2364 O3'        18.0530   -2.9020   18.3250 O.3      74   C    0.0000
   2365 C2'        19.3120   -1.1210   17.1560 C.3      74   C    0.0000
   2366 O2'        20.1080   -1.0830   18.3320 O.3      74   C    0.0000
   2367 C1'        20.2460   -1.2170   15.9480 C.3      74   C    0.0000
   2368 N1         19.7690   -0.4400   14.7870 N.am     74   C    0.0000
   2369 C2         19.5950    0.9440   14.8760 C.2      74   C    0.0000
   2370 O2         19.8120    1.5230   15.9510 O.2      74   C    0.0000
   2371 N3         19.1780    1.6180   13.7780 N.2      74   C    0.0000
   2372 C4         18.9560    0.9680   12.6340 C.2      74   C    0.0000
   2373 N4         18.5490    1.6700   11.5740 N.pl3    74   C    0.0000
   2374 C5         19.1400   -0.4370   12.5170 C.2      74   C    0.0000
   2375 C6         19.5520   -1.0890   13.6060 C.2      74   C    0.0000
   2376 OP1        16.1050   -3.8730   13.1430 O.co2    74   C    0.0000
   2377 OP2        16.8580   -6.0240   14.3010 O.co2    74   C    0.0000
   2378 HO2'       19.5390   -1.0220   19.1030 H        74   C    0.0000
   2379 H5         18.9550   -0.9540   11.5870 H        74   C    0.0000
   2380 H6         19.7180   -2.1550   13.5510 H        74   C    0.0000
   2381 H1'        21.2350   -0.8590   16.2340 H        74   C    0.0000
   2382 H2'        18.6570   -0.2520   17.0870 H        74   C    0.0000
   2383 H3'        17.6680   -2.2840   16.4030 H        74   C    0.0000
   2384 H4'        20.1170   -3.8540   17.1850 H        74   C    0.0000
   2385 H41        18.4160    2.6690   11.6510 H        74   C    0.0000
   2386 H5'        19.6520   -5.2000   15.2900 H        74   C    0.0000
   2387 H42        18.3730    1.2040   10.6960 H        74   C    0.0000
   2388 H5''       18.1160   -4.9980   16.1610 H        74   C    0.0000
   2389 P          16.4800   -2.9250   18.6610 P.3      75   C    0.0000
   2390 C5'        16.7250   -0.7450   20.0940 C.3      75   C    0.0000
   2391 O5'        16.1630   -1.3940   18.9640 O.3      75   C    0.0000
   2392 C4'        16.2300    0.6730   20.2070 C.3      75   C    0.0000
   2393 O4'        16.9300    1.5130   19.2520 O.3      75   C    0.0000
   2394 C3'        14.7620    0.8900   19.8810 C.3      75   C    0.0000
   2395 O3'        13.9000    0.5780   20.9630 O.3      75   C    0.0000
   2396 C2'        14.7300    2.3560   19.4730 C.3      75   C    0.0000
   2397 O2'        14.8000    3.1950   20.6190 O.3      75   C    0.0000
   2398 C1'        16.0460    2.4740   18.7170 C.3      75   C    0.0000
   2399 N1         15.8840    2.2030   17.2730 N.am     75   C    0.0000
   2400 C2         15.4470    3.2250   16.4320 C.2      75   C    0.0000
   2401 O2         15.1860    4.3310   16.9200 O.2      75   C    0.0000
   2402 N3         15.3120    2.9840   15.1110 N.2      75   C    0.0000
   2403 C4         15.6020    1.7820   14.6200 C.2      75   C    0.0000
   2404 N4         15.4520    1.5940   13.3080 N.pl3    75   C    0.0000
   2405 C5         16.0590    0.7220   15.4510 C.2      75   C    0.0000
   2406 C6         16.1850    0.9730   16.7600 C.2      75   C    0.0000
   2407 OP1        15.7720   -3.3500   17.4250 O.co2    75   C    0.0000
   2408 OP2        16.3020   -3.7320   19.8940 O.co2    75   C    0.0000
   2409 HO2'       14.9410    4.1040   20.3420 H        75   C    0.0000
   2410 H5         16.2960   -0.2490   15.0410 H        75   C    0.0000
   2411 H6         16.5300    0.1910   17.4200 H        75   C    0.0000
   2412 H1'        16.4610    3.4720   18.8580 H        75   C    0.0000
   2413 H2'        13.8710    2.5890   18.8440 H        75   C    0.0000
   2414 H3'        14.4930    0.2750   19.0220 H        75   C    0.0000
   2415 H4'        16.4280    1.0390   21.2150 H        75   C    0.0000
   2416 H41        15.1280    2.3500   12.7230 H        75   C    0.0000
   2417 H5'        17.8100   -0.7360   19.9960 H        75   C    0.0000
   2418 H42        15.6640    0.6940   12.9000 H        75   C    0.0000
   2419 H5''       16.4510   -1.2930   20.9950 H        75   C    0.0000
   2420 P          12.3450    0.2840   20.6940 P.3      76   A    0.0000
   2421 C5'        11.5450    2.7780   20.7360 C.3      76   A    0.0000
   2422 O5'        11.8510    1.6170   19.9820 O.3      76   A    0.0000
   2423 C4'        10.7940    3.7860   19.9060 C.3      76   A    0.0000
   2424 O4'        11.6430    4.2660   18.8300 O.3      76   A    0.0000
   2425 C3'         9.5590    3.2660   19.1850 C.3      76   A    0.0000
   2426 O3'         8.4170    3.1650   20.0230 O.3      76   A    0.0000
   2427 C2'         9.4000    4.2660   18.0470 C.3      76   A    0.0000
   2428 O2'         8.8310    5.4790   18.5230 O.3      76   A    0.0000
   2429 C1'        10.8610    4.5300   17.6820 C.3      76   A    0.0000
   2430 N1         10.8950    3.8200   12.5850 N.ar     76   A    0.0000
   2431 C2         10.3530    4.7560   13.3720 C.ar     76   A    0.0000
   2432 N3         10.3890    4.8680   14.6990 N.ar     76   A    0.0000
   2433 C4         11.0900    3.8640   15.2440 C.ar     76   A    0.0000
   2434 C5         11.7080    2.8240   14.5700 C.ar     76   A    0.0000
   2435 C6         11.5940    2.8180   13.1620 C.ar     76   A    0.0000
   2436 N6         12.1300    1.8970   12.3550 N.pl3    76   A    0.0000
   2437 N7         12.3360    1.9770   15.4740 N.ar     76   A    0.0000
   2438 C8         12.0820    2.5160   16.6440 C.ar     76   A    0.0000
   2439 N9         11.3250    3.6600   16.5800 N.ar     76   A    0.0000
   2440 OP1        11.6920    0.1470   22.0160 O.co2    76   A    0.0000
   2441 OP2        12.2720   -0.8530   19.7410 O.co2    76   A    0.0000
   2442 HO2'        8.1810    5.7960   17.8910 H        76   A    0.0000
   2443 H2          9.8070    5.5330   12.8570 H        76   A    0.0000
   2444 H8         12.4360    2.0960   17.5740 H        76   A    0.0000
   2445 H1'        10.9800    5.5750   17.3940 H        76   A    0.0000
   2446 H2'         8.8380    3.8490   17.2110 H        76   A    0.0000
   2447 H3'         9.7790    2.2840   18.7660 H        76   A    0.0000
   2448 H4'        10.5100    4.6270   20.5380 H        76   A    0.0000
   2449 H5'        10.9330    2.4950   21.5920 H        76   A    0.0000
   2450 H61        12.0030    1.9650   11.3550 H        76   A    0.0000
   2451 H62        12.6620    1.1320   12.7450 H        76   A    0.0000
   2452 H5''       12.4720    3.2280   21.0920 H        76   A    0.0000
   2453 P           7.2740    2.0780   19.7020 P.3      77   A    0.0000
   2454 C5'         6.1270    3.8310   18.1460 C.3      77   A    0.0000
   2455 O5'         6.7200    2.5540   18.2900 O.3      77   A    0.0000
   2456 C4'         5.8230    4.1510   16.7050 C.3      77   A    0.0000
   2457 O4'         7.0460    4.1860   15.9260 O.3      77   A    0.0000
   2458 C3'         4.9620    3.1530   15.9580 C.3      77   A    0.0000
   2459 O3'         3.5910    3.2430   16.2980 O.3      77   A    0.0000
   2460 C2'         5.2610    3.5100   14.5070 C.3      77   A    0.0000
   2461 O2'         4.5630    4.6920   14.1320 O.3      77   A    0.0000
   2462 C1'         6.7530    3.8440   14.5850 C.3      77   A    0.0000
   2463 N1          8.8640    1.4150   10.6030 N.ar     77   A    0.0000
   2464 C2          8.0840    2.5010   10.7010 C.ar     77   A    0.0000
   2465 N3          7.5710    3.0750   11.7870 N.ar     77   A    0.0000
   2466 C4          7.9420    2.4080   12.8910 C.ar     77   A    0.0000
   2467 C5          8.7410    1.2790   12.9560 C.ar     77   A    0.0000
   2468 C6          9.2210    0.7670   11.7310 C.ar     77   A    0.0000
   2469 N6         10.0020   -0.3110   11.6080 N.pl3    77   A    0.0000
   2470 N7          8.9000    0.8790   14.2790 N.ar     77   A    0.0000
   2471 C8          8.2050    1.7560   14.9660 C.ar     77   A    0.0000
   2472 N9          7.5980    2.7060   14.1840 N.ar     77   A    0.0000
   2473 OP1         7.9490    0.7650   19.5610 O.co2    77   A    0.0000
   2474 OP2         6.2190    2.2360   20.7370 O.co2    77   A    0.0000
   2475 HO2'        4.8800    4.9930   13.2780 H        77   A    0.0000
   2476 H2          7.8370    2.9780    9.7650 H        77   A    0.0000
   2477 H8          8.1200    1.7330   16.0420 H        77   A    0.0000
   2478 H1'         6.9660    4.6970   13.9410 H        77   A    0.0000
   2479 H2'         5.0600    2.6810   13.8290 H        77   A    0.0000
   2480 H3'         5.3190    2.1440   16.1620 H        77   A    0.0000
   2481 H4'         5.3480    5.1310   16.6560 H        77   A    0.0000
   2482 H5'         5.1970    3.8540   18.7150 H        77   A    0.0000
   2483 H61        10.3040   -0.6140   10.6940 H        77   A    0.0000
   2484 H62        10.2900   -0.8220   12.4300 H        77   A    0.0000
   2485 H5''        6.8060    4.5860   18.5420 H        77   A    0.0000
   2486 P           2.6450    1.9520   16.1690 P.3      78   A    0.0000
   2487 C5'         1.7910    2.9110   13.8830 C.3      78   A    0.0000
   2488 O5'         2.4070    1.8480   14.5970 O.3      78   A    0.0000
   2489 C4'         1.9680    2.7590   12.3920 C.3      78   A    0.0000
   2490 O4'         3.3810    2.7700   12.0570 O.3      78   A    0.0000
   2491 C3'         1.4570    1.4650   11.7840 C.3      78   A    0.0000
   2492 O3'         0.0540    1.4680   11.5740 O.3      78   A    0.0000
   2493 C2'         2.2660    1.3620   10.4960 C.3      78   A    0.0000
   2494 O2'         1.7110    2.1980    9.4890 O.3      78   A    0.0000
   2495 C1'         3.6130    1.9510   10.9300 C.3      78   A    0.0000
   2496 N1          7.1910   -1.3540    9.2390 N.ar     78   A    0.0000
   2497 C2          6.4190   -0.4650    8.6060 C.ar     78   A    0.0000
   2498 N3          5.5090    0.3680    9.1100 N.ar     78   A    0.0000
   2499 C4          5.4220    0.2280   10.4430 C.ar     78   A    0.0000
   2500 C5          6.1520   -0.6430   11.2330 C.ar     78   A    0.0000
   2501 C6          7.0810   -1.4690   10.5800 C.ar     78   A    0.0000
   2502 N6          7.8560   -2.3560   11.2110 N.pl3    78   A    0.0000
   2503 N7          5.7930   -0.5140   12.5660 N.ar     78   A    0.0000
   2504 C8          4.8650    0.4160   12.5500 C.ar     78   A    0.0000
   2505 N9          4.5870    0.9050   11.2990 N.ar     78   A    0.0000
   2506 OP1         3.4280    0.7860   16.6390 O.co2    78   A    0.0000
   2507 OP2         1.3690    2.2760   16.8530 O.co2    78   A    0.0000
   2508 HO2'        0.8660    1.8410    9.2070 H        78   A    0.0000
   2509 H2          6.5510   -0.4150    7.5350 H        78   A    0.0000
   2510 H8          4.3660    0.7640   13.4420 H        78   A    0.0000
   2511 H1'         4.0200    2.5560   10.1200 H        78   A    0.0000
   2512 H2'         2.3640    0.3300   10.1590 H        78   A    0.0000
   2513 H3'         1.7190    0.6330   12.4390 H        78   A    0.0000
   2514 H4'         1.4820    3.5980   11.8930 H        78   A    0.0000
   2515 H5'         0.7260    2.9210   14.1130 H        78   A    0.0000
   2516 H61         8.5060   -2.9220   10.6850 H        78   A    0.0000
   2517 H62         7.7910   -2.4600   12.2130 H        78   A    0.0000
   2518 H5''        2.2330    3.8560   14.2000 H        78   A    0.0000
   2519 P          -0.6990    0.1300   11.0910 P.3      79   A    0.0000
   2520 C5'        -0.1390   -1.4670    9.0940 C.3      79   A    0.0000
   2521 O5'         0.2570   -0.4060    9.9400 O.3      79   A    0.0000
   2522 C4'         0.6640   -1.4770    7.8210 C.3      79   A    0.0000
   2523 O4'         2.0450   -1.1230    8.1060 O.3      79   A    0.0000
   2524 C3'         0.7560   -2.8150    7.1130 C.3      79   A    0.0000
   2525 O3'        -0.3790   -3.0870    6.3160 O.3      79   A    0.0000
   2526 C2'         2.0480   -2.6930    6.3180 C.3      79   A    0.0000
   2527 O2'         1.8340   -1.9620    5.1210 O.3      79   A    0.0000
   2528 C1'         2.9130   -1.8490    7.2600 C.3      79   A    0.0000
   2529 N1          6.8210   -5.2090    7.3220 N.ar     79   A    0.0000
   2530 C2          6.1840   -4.5760    6.3280 C.ar     79   A    0.0000
   2531 N3          5.1730   -3.7130    6.3830 N.ar     79   A    0.0000
   2532 C4          4.8000   -3.5060    7.6550 C.ar     79   A    0.0000
   2533 C5          5.3520   -4.0810    8.7840 C.ar     79   A    0.0000
   2534 C6          6.4160   -4.9770    8.5890 C.ar     79   A    0.0000
   2535 N6          7.0460   -5.6050    9.5830 N.pl3    79   A    0.0000
   2536 N7          4.7120   -3.6300    9.9270 N.ar     79   A    0.0000
   2537 C8          3.7970   -2.8060    9.4680 C.ar     79   A    0.0000
   2538 N9          3.7940   -2.6830    8.0990 N.ar     79   A    0.0000
   2539 OP1        -0.6910   -0.8150   12.2350 O.co2    79   A    0.0000
   2540 OP2        -2.0040    0.5440   10.5150 O.co2    79   A    0.0000
   2541 HO2'        2.6790   -1.7710    4.7070 H        79   A    0.0000
   2542 H2          6.5450   -4.7990    5.3350 H        79   A    0.0000
   2543 H8          3.1100   -2.2740   10.1080 H        79   A    0.0000
   2544 H1'         3.5170   -1.1550    6.6760 H        79   A    0.0000
   2545 H2'         2.4960   -3.6670    6.1210 H        79   A    0.0000
   2546 H3'         0.8680   -3.6040    7.8560 H        79   A    0.0000
   2547 H4'         0.2460   -0.7410    7.1330 H        79   A    0.0000
   2548 H5'         0.0100   -2.4130    9.6150 H        79   A    0.0000
   2549 H61         7.8070   -6.2380    9.3790 H        79   A    0.0000
   2550 H62         6.7630   -5.4480   10.5400 H        79   A    0.0000
   2551 H5''       -1.1960   -1.3550    8.8490 H        79   A    0.0000
   2552 P          -0.9610   -4.5800    6.2340 P.3      80   C    0.0000
   2553 C5'         0.4910   -4.8960    4.0840 C.3      80   C    0.0000
   2554 O5'         0.1480   -5.3400    5.3850 O.3      80   C    0.0000
   2555 C4'         1.7290   -5.5860    3.5790 C.3      80   C    0.0000
   2556 O4'         2.8610   -5.2400    4.4170 O.3      80   C    0.0000
   2557 C3'         1.7040   -7.1040    3.6040 C.3      80   C    0.0000
   2558 O3'         1.0100   -7.6600    2.5020 O.3      80   C    0.0000
   2559 C2'         3.1850   -7.4530    3.6270 C.3      80   C    0.0000
   2560 O2'         3.7450   -7.3220    2.3310 O.3      80   C    0.0000
   2561 C1'         3.7460   -6.3350    4.5050 C.3      80   C    0.0000
   2562 N1          3.8580   -6.7360    5.9230 N.am     80   C    0.0000
   2563 C2          4.9920   -7.4400    6.3370 C.2      80   C    0.0000
   2564 O2          5.8630   -7.7170    5.4960 O.2      80   C    0.0000
   2565 N3          5.1070   -7.8010    7.6400 N.2      80   C    0.0000
   2566 C4          4.1510   -7.4810    8.5130 C.2      80   C    0.0000
   2567 N4          4.3090   -7.8570    9.7840 N.pl3    80   C    0.0000
   2568 C5          2.9900   -6.7600    8.1140 C.2      80   C    0.0000
   2569 C6          2.8860   -6.4100    6.8250 C.2      80   C    0.0000
   2570 OP1        -0.9930   -5.1150    7.6160 O.co2    80   C    0.0000
   2571 OP2        -2.2290   -4.5150    5.4660 O.co2    80   C    0.0000
   2572 HO2'        4.6450   -7.6560    2.3360 H        80   C    0.0000
   2573 H5          2.2190   -6.5050    8.8250 H        80   C    0.0000
   2574 H6          2.0190   -5.8590    6.4940 H        80   C    0.0000
   2575 H1'         4.7270   -6.0390    4.1330 H        80   C    0.0000
   2576 H2'         3.3670   -8.4390    4.0540 H        80   C    0.0000
   2577 H3'         1.2400   -7.4420    4.5300 H        80   C    0.0000
   2578 H4'         1.9290   -5.2530    2.5610 H        80   C    0.0000
   2579 H41         5.1350   -8.3680   10.0600 H        80   C    0.0000
   2580 H5'         0.6690   -3.8210    4.1110 H        80   C    0.0000
   2581 H42         3.6030   -7.6300   10.4690 H        80   C    0.0000
   2582 H5''       -0.3360   -5.1050    3.4050 H        80   C    0.0000
   2583 P           0.3590   -9.1250    2.6070 P.3      81   C    0.0000
   2584 C5'         2.4510  -10.2210    1.4710 C.3      81   C    0.0000
   2585 O5'         1.6370  -10.0760    2.6240 O.3      81   C    0.0000
   2586 C4'         3.5850  -11.1870    1.7100 C.3      81   C    0.0000
   2587 O4'         4.3730  -10.7490    2.8410 O.3      81   C    0.0000
   2588 C3'         3.1850  -12.6110    2.0550 C.3      81   C    0.0000
   2589 O3'         2.9000  -13.3790    0.8990 O.3      81   C    0.0000
   2590 C2'         4.3900  -13.1300    2.8390 C.3      81   C    0.0000
   2591 O2'         5.3930  -13.5960    1.9550 O.3      81   C    0.0000
   2592 C1'         4.9130  -11.8630    3.5140 C.3      81   C    0.0000
   2593 N1          4.5570  -11.7760    4.9550 N.am     81   C    0.0000
   2594 C2          5.2710  -12.5430    5.8960 C.2      81   C    0.0000
   2595 O2          6.1550  -13.3270    5.5060 O.2      81   C    0.0000
   2596 N3          4.9710  -12.4340    7.2160 N.2      81   C    0.0000
   2597 C4          4.0150  -11.5890    7.6110 C.2      81   C    0.0000
   2598 N4          3.7410  -11.5080    8.9180 N.pl3    81   C    0.0000
   2599 C5          3.2940  -10.7890    6.6770 C.2      81   C    0.0000
   2600 C6          3.5940  -10.9040    5.3780 C.2      81   C    0.0000
   2601 OP1        -0.3460   -9.2000    3.9090 O.co2    81   C    0.0000
   2602 OP2        -0.4180   -9.3480    1.3610 O.co2    81   C    0.0000
   2603 HO2'        5.2120  -13.2770    1.0680 H        81   C    0.0000
   2604 H5          2.5250  -10.1080    7.0090 H        81   C    0.0000
   2605 H6          3.0690  -10.2990    4.6540 H        81   C    0.0000
   2606 H1'         5.9980  -11.8370    3.4190 H        81   C    0.0000
   2607 H2'         4.1050  -13.8890    3.5670 H        81   C    0.0000
   2608 H3'         2.3100  -12.5950    2.7040 H        81   C    0.0000
   2609 H4'         4.2220  -11.2060    0.8260 H        81   C    0.0000
   2610 H41         4.2520  -12.0770    9.5780 H        81   C    0.0000
   2611 H5'         2.8650   -9.2480    1.2060 H        81   C    0.0000
   2612 H42         3.0220  -10.8790    9.2450 H        81   C    0.0000
   2613 H5''        1.8400  -10.5860    0.6460 H        81   C    0.0000
   2614 P           1.5680  -14.2760    0.8090 P.3      82   G    0.0000
   2615 C5'         3.3940  -16.1460    0.5550 C.3      82   G    0.0000
   2616 O5'         2.1260  -15.7460    1.0620 O.3      82   G    0.0000
   2617 C4'         4.1180  -17.0530    1.5210 C.3      82   G    0.0000
   2618 O4'         4.5150  -16.3020    2.6890 O.3      82   G    0.0000
   2619 C3'         3.3140  -18.2330    2.0570 C.3      82   G    0.0000
   2620 O3'         3.3980  -19.3620    1.2020 O.3      82   G    0.0000
   2621 C2'         3.9140  -18.4860    3.4410 C.3      82   G    0.0000
   2622 O2'         5.0070  -19.3880    3.3460 O.3      82   G    0.0000
   2623 C1'         4.4580  -17.1090    3.8390 C.3      82   G    0.0000
   2624 N1          4.1050  -15.5690    8.7190 N.am     82   G    0.0000
   2625 C2          5.0730  -16.3250    8.1150 C.2      82   G    0.0000
   2626 N2          6.0760  -16.7120    8.9150 N.pl3    82   G    0.0000
   2627 N3          5.0560  -16.6750    6.8340 N.2      82   G    0.0000
   2628 C4          3.9660  -16.1990    6.1860 C.ar     82   G    0.0000
   2629 C5          2.9420  -15.4310    6.7080 C.ar     82   G    0.0000
   2630 C6          2.9790  -15.0670    8.0820 C.2      82   G    0.0000
   2631 O6          2.1690  -14.3950    8.7340 O.2      82   G    0.0000
   2632 N7          2.0070  -15.1390    5.7310 N.ar     82   G    0.0000
   2633 C8          2.4710  -15.7220    4.6560 C.ar     82   G    0.0000
   2634 N9          3.6410  -16.4120    4.8570 N.ar     82   G    0.0000
   2635 OP1         0.6850  -13.8720    1.9300 O.co2    82   G    0.0000
   2636 OP2         1.0590  -14.1560   -0.5830 O.co2    82   G    0.0000
   2637 HO2'        4.6840  -20.2580    3.0970 H        82   G    0.0000
   2638 H1          4.2190  -15.3610    9.7010 H        82   G    0.0000
   2639 H8          1.9780  -15.6650    3.6960 H        82   G    0.0000
   2640 H1'         5.4690  -17.2330    4.2270 H        82   G    0.0000
   2641 H2'         3.1610  -18.8390    4.1460 H        82   G    0.0000
   2642 H21         6.0780  -16.4410    9.8890 H        82   G    0.0000
   2643 H3'         2.2700  -17.9390    2.1650 H        82   G    0.0000
   2644 H22         6.8290  -17.2730    8.5460 H        82   G    0.0000
   2645 H4'         5.0140  -17.4370    1.0330 H        82   G    0.0000
   2646 H5'         3.2470  -16.6760   -0.3860 H        82   G    0.0000
   2647 H5''        4.0020  -15.2590    0.3740 H        82   G    0.0000
   2648 P           2.1860  -20.4140    1.0990 P.3      83   A    0.0000
   2649 C5'         3.5360  -21.1390   -1.0260 C.3      83   A    0.0000
   2650 O5'         2.7670  -21.5130    0.1060 O.3      83   A    0.0000
   2651 C4'         4.1030  -22.3450   -1.7260 C.3      83   A    0.0000
   2652 O4'         5.1400  -22.9490   -0.9080 O.3      83   A    0.0000
   2653 C3'         3.1310  -23.4850   -1.9770 C.3      83   A    0.0000
   2654 O3'         2.2930  -23.2630   -3.0940 O.3      83   A    0.0000
   2655 C2'         4.0620  -24.6760   -2.1380 C.3      83   A    0.0000
   2656 O2'         4.6590  -24.6760   -3.4270 O.3      83   A    0.0000
   2657 C1'         5.1440  -24.3500   -1.1020 C.3      83   A    0.0000
   2658 N1          5.0210  -28.8320    1.4030 N.ar     83   A    0.0000
   2659 C2          5.3190  -28.5100    0.1380 C.ar     83   A    0.0000
   2660 N3          5.3330  -27.3200   -0.4460 N.ar     83   A    0.0000
   2661 C4          4.9850  -26.3660    0.4340 C.ar     83   A    0.0000
   2662 C5          4.6450  -26.5410    1.7650 C.ar     83   A    0.0000
   2663 C6          4.6730  -27.8530    2.2600 C.ar     83   A    0.0000
   2664 N6          4.3800  -28.1830    3.5170 N.pl3    83   A    0.0000
   2665 N7          4.3360  -25.3230    2.3570 N.ar     83   A    0.0000
   2666 C8          4.4930  -24.4510    1.3850 C.ar     83   A    0.0000
   2667 N9          4.8850  -25.0110    0.1930 N.ar     83   A    0.0000
   2668 OP1         1.0420  -19.7060    0.4590 O.co2    83   A    0.0000
   2669 OP2         1.9970  -21.0100    2.4530 O.co2    83   A    0.0000
   2670 HO2'        3.9940  -24.8790   -4.0880 H        83   A    0.0000
   2671 H2          5.5880  -29.3400   -0.4990 H        83   A    0.0000
   2672 H8          4.3280  -23.3910    1.5120 H        83   A    0.0000
   2673 H1'         6.1170  -24.6620   -1.4820 H        83   A    0.0000
   2674 H2'         3.5600  -25.6190   -1.9200 H        83   A    0.0000
   2675 H3'         2.5140  -23.6300   -1.0900 H        83   A    0.0000
   2676 H4'         4.5370  -22.0330   -2.6760 H        83   A    0.0000
   2677 H5'         4.3570  -20.4990   -0.7020 H        83   A    0.0000
   2678 H61         4.4210  -29.1490    3.8080 H        83   A    0.0000
   2679 H62         4.1180  -27.4660    4.1790 H        83   A    0.0000
   2680 H5''        2.9040  -20.5860   -1.7210 H        83   A    0.0000
   2681 P           0.8050  -23.8780   -3.1260 P.3      84   C    0.0000
   2682 C5'         1.5110  -26.1480   -4.2200 C.3      84   C    0.0000
   2683 O5'         1.0670  -25.4460   -3.0730 O.3      84   C    0.0000
   2684 C4'         1.7560  -27.5990   -3.9130 C.3      84   C    0.0000
   2685 O4'         2.6660  -27.7180   -2.7890 O.3      84   C    0.0000
   2686 C3'         0.5470  -28.4030   -3.4740 C.3      84   C    0.0000
   2687 O3'        -0.2880  -28.7840   -4.5520 O.3      84   C    0.0000
   2688 C2'         1.1900  -29.5760   -2.7540 C.3      84   C    0.0000
   2689 O2'         1.7210  -30.5040   -3.6860 O.3      84   C    0.0000
   2690 C1'         2.3560  -28.8830   -2.0510 C.3      84   C    0.0000
   2691 N1          2.0120  -28.4920   -0.6720 N.am     84   C    0.0000
   2692 C2          1.9440  -29.5100    0.2770 C.2      84   C    0.0000
   2693 O2          2.1720  -30.6710   -0.0900 O.2      84   C    0.0000
   2694 N3          1.6290  -29.2080    1.5570 N.2      84   C    0.0000
   2695 C4          1.3900  -27.9430    1.9000 C.2      84   C    0.0000
   2696 N4          1.0820  -27.6940    3.1760 N.pl3    84   C    0.0000
   2697 C5          1.4570  -26.8810    0.9480 C.2      84   C    0.0000
   2698 C6          1.7680  -27.1980   -0.3180 C.2      84   C    0.0000
   2699 OP1         0.2110  -23.5050   -4.4380 O.co2    84   C    0.0000
   2700 OP2         0.1180  -23.4410   -1.8820 O.co2    84   C    0.0000
   2701 HO2'        1.0020  -30.9510   -4.1390 H        84   C    0.0000
   2702 H5          1.2650  -25.8580    1.2360 H        84   C    0.0000
   2703 H6          1.8260  -26.4200   -1.0650 H        84   C    0.0000
   2704 H1'         3.2200  -29.5470   -2.0370 H        84   C    0.0000
   2705 H2'         0.5070  -30.0490   -2.0480 H        84   C    0.0000
   2706 H3'        -0.0340  -27.8180   -2.7610 H        84   C    0.0000
   2707 H4'         2.2030  -28.0770   -4.7850 H        84   C    0.0000
   2708 H41         1.0370  -28.4520    3.8420 H        84   C    0.0000
   2709 H5'         0.7510  -26.0730   -4.9980 H        84   C    0.0000
   2710 H42         0.8940  -26.7470    3.4740 H        84   C    0.0000
   2711 H5''        2.4360  -25.6970   -4.5790 H        84   C    0.0000
   2712 P          -1.8840  -28.7790   -4.3740 P.3      85   A    0.0000
   2713 C5'        -1.9710  -31.3570   -3.9610 C.3      85   A    0.0000
   2714 O5'        -2.1360  -30.0460   -3.4520 O.3      85   A    0.0000
   2715 C4'        -2.1710  -32.3860   -2.8840 C.3      85   A    0.0000
   2716 O4'        -1.2090  -32.1680   -1.8230 O.3      85   A    0.0000
   2717 C3'        -3.5070  -32.3450   -2.1670 C.3      85   A    0.0000
   2718 O3'        -4.5560  -32.9540   -2.8970 O.3      85   A    0.0000
   2719 C2'        -3.1900  -33.0380   -0.8520 C.3      85   A    0.0000
   2720 O2'        -3.1240  -34.4440   -1.0310 O.3      85   A    0.0000
   2721 C1'        -1.7800  -32.5230   -0.5800 C.3      85   A    0.0000
   2722 N1         -2.3100  -30.9020    4.2620 N.ar     85   A    0.0000
   2723 C2         -2.3600  -32.1130    3.6960 C.ar     85   A    0.0000
   2724 N3         -2.2110  -32.4510    2.4150 N.ar     85   A    0.0000
   2725 C4         -1.9790  -31.3670    1.6560 C.ar     85   A    0.0000
   2726 C5         -1.8980  -30.0570    2.0880 C.ar     85   A    0.0000
   2727 C6         -2.0750  -29.8310    3.4700 C.ar     85   A    0.0000
   2728 N6         -2.0240  -28.6240    4.0460 N.pl3    85   A    0.0000
   2729 N7         -1.6500  -29.2100    1.0160 N.ar     85   A    0.0000
   2730 C8         -1.5890  -30.0180   -0.0190 C.ar     85   A    0.0000
   2731 N9         -1.7820  -31.3380    0.2990 N.ar     85   A    0.0000
   2732 OP1        -2.2380  -27.5430   -3.6360 O.co2    85   A    0.0000
   2733 OP2        -2.4780  -29.0030   -5.7160 O.co2    85   A    0.0000
   2734 HO2'       -3.4940  -34.8820   -0.2610 H        85   A    0.0000
   2735 H2         -2.5470  -32.9330    4.3730 H        85   A    0.0000
   2736 H8         -1.4040  -29.6740   -1.0260 H        85   A    0.0000
   2737 H1'        -1.1870  -33.3140   -0.1220 H        85   A    0.0000
   2738 H2'        -3.8880  -32.7580   -0.0620 H        85   A    0.0000
   2739 H3'        -3.7710  -31.3060   -1.9660 H        85   A    0.0000
   2740 H4'        -2.0210  -33.3800   -3.3060 H        85   A    0.0000
   2741 H5'        -2.7010  -31.5260   -4.7530 H        85   A    0.0000
   2742 H61        -2.1600  -28.5340    5.0430 H        85   A    0.0000
   2743 H62        -1.8500  -27.8030    3.4840 H        85   A    0.0000
   2744 H5''       -0.9670  -31.4590   -4.3710 H        85   A    0.0000
   2745 P          -6.0740  -32.4630   -2.6900 P.3      86   G    0.0000
   2746 C5'        -6.3570  -34.1910   -0.7410 C.3      86   G    0.0000
   2747 O5'        -6.3630  -32.8380   -1.1700 O.3      86   G    0.0000
   2748 C4'        -6.7710  -34.3140    0.7020 C.3      86   G    0.0000
   2749 O4'        -5.7530  -33.7420    1.5570 O.3      86   G    0.0000
   2750 C3'        -8.0470  -33.5840    1.0880 C.3      86   G    0.0000
   2751 O3'        -9.2130  -34.3290    0.7790 O.3      86   G    0.0000
   2752 C2'        -7.8660  -33.3290    2.5840 C.3      86   G    0.0000
   2753 O2'        -8.2850  -34.4550    3.3400 O.3      86   G    0.0000
   2754 C1'        -6.3430  -33.1910    2.7120 C.3      86   G    0.0000
   2755 N1         -5.4230  -29.2930    5.8840 N.am     86   G    0.0000
   2756 C2         -5.8800  -30.5560    6.1660 C.2      86   G    0.0000
   2757 N2         -6.1170  -30.8080    7.4640 N.pl3    86   G    0.0000
   2758 N3         -6.0840  -31.4910    5.2530 N.2      86   G    0.0000
   2759 C4         -5.7870  -31.0550    4.0110 C.ar     86   G    0.0000
   2760 C5         -5.3290  -29.8090    3.6280 C.ar     86   G    0.0000
   2761 C6         -5.1150  -28.8120    4.6170 C.2      86   G    0.0000
   2762 O6         -4.7110  -27.6440    4.4870 O.2      86   G    0.0000
   2763 N7         -5.1470  -29.7540    2.2540 N.ar     86   G    0.0000
   2764 C8         -5.4940  -30.9430    1.8380 C.ar     86   G    0.0000
   2765 N9         -5.9040  -31.7840    2.8460 N.ar     86   G    0.0000
   2766 OP1        -6.9250  -33.2850   -3.5830 O.co2    86   G    0.0000
   2767 OP2        -6.0830  -30.9900   -2.8560 O.co2    86   G    0.0000
   2768 HO2'       -8.0450  -34.3290    4.2610 H        86   G    0.0000
   2769 H1         -5.3000  -28.6610    6.6620 H        86   G    0.0000
   2770 H8         -5.4610  -31.2380    0.8000 H        86   G    0.0000
   2771 H1'        -6.0070  -33.7520    3.5840 H        86   G    0.0000
   2772 H2'        -8.3790  -32.4210    2.9000 H        86   G    0.0000
   2773 H21        -5.9580  -30.0890    8.1560 H        86   G    0.0000
   2774 H3'        -8.0840  -32.6280    0.5650 H        86   G    0.0000
   2775 H22        -6.4550  -31.7170    7.7480 H        86   G    0.0000
   2776 H4'        -6.8830  -35.3700    0.9470 H        86   G    0.0000
   2777 H5'        -7.0510  -34.7620   -1.3580 H        86   G    0.0000
   2778 H5''       -5.3540  -34.6000   -0.8610 H        86   G    0.0000
   2779 P         -10.4980  -33.6030    0.1440 P.3      87   U    0.0000
   2780 C5'       -11.4680  -33.5820    2.5730 C.3      87   U    0.0000
   2781 O5'       -11.1370  -32.8620    1.3970 O.3      87   U    0.0000
   2782 C4'       -11.7840  -32.6530    3.7160 C.3      87   U    0.0000
   2783 O4'       -10.5590  -32.0780    4.2360 O.3      87   U    0.0000
   2784 C3'       -12.6420  -31.4470    3.3740 C.3      87   U    0.0000
   2785 O3'       -14.0240  -31.7570    3.2960 O.3      87   U    0.0000
   2786 C2'       -12.2940  -30.4630    4.4890 C.3      87   U    0.0000
   2787 O2'       -13.0230  -30.7660    5.6710 O.3      87   U    0.0000
   2788 C1'       -10.8160  -30.7810    4.7370 C.3      87   U    0.0000
   2789 N1         -9.9110  -29.8160    4.0630 N.am     87   U    0.0000
   2790 C2         -9.1980  -28.9280    4.8660 C.2      87   U    0.0000
   2791 O2         -9.2810  -28.9100    6.0860 O.2      87   U    0.0000
   2792 N3         -8.3790  -28.0550    4.1870 N.am     87   U    0.0000
   2793 C4         -8.2030  -27.9780    2.8180 C.2      87   U    0.0000
   2794 O4         -7.4320  -27.1350    2.3540 O.2      87   U    0.0000
   2795 C5         -8.9720  -28.9250    2.0650 C.2      87   U    0.0000
   2796 C6         -9.7800  -29.7900    2.6920 C.2      87   U    0.0000
   2797 OP1       -11.4130  -34.6690   -0.3310 O.co2    87   U    0.0000
   2798 OP2        -9.9990  -32.6030   -0.8350 O.co2    87   U    0.0000
   2799 HO2'      -13.9530  -30.5720    5.5330 H        87   U    0.0000
   2800 H3         -7.8510  -27.4020    4.7480 H        87   U    0.0000
   2801 H5         -8.8990  -28.9410    0.9870 H        87   U    0.0000
   2802 H6        -10.3510  -30.4910    2.1010 H        87   U    0.0000
   2803 H1'       -10.6210  -30.7660    5.8090 H        87   U    0.0000
   2804 H2'       -12.4400  -29.4290    4.1770 H        87   U    0.0000
   2805 H3'       -12.3140  -31.0340    2.4200 H        87   U    0.0000
   2806 H4'       -12.2720  -33.2210    4.5080 H        87   U    0.0000
   2807 H5'       -12.3390  -34.2070    2.3730 H        87   U    0.0000
   2808 H5''      -10.6280  -34.2180    2.8510 H        87   U    0.0000
   2809 P         -15.0430  -30.7490    2.5660 P.3      88   A    0.0000
   2810 C5'       -16.1570  -28.5740    3.5150 C.3      88   A    0.0000
   2811 O5'       -15.0920  -29.5150    3.5660 O.3      88   A    0.0000
   2812 C4'       -15.6420  -27.1710    3.3370 C.3      88   A    0.0000
   2813 O4'       -16.6470  -26.2280    3.8130 O.3      88   A    0.0000
   2814 C3'       -14.3550  -26.8470    4.1050 C.3      88   A    0.0000
   2815 O3'       -13.5560  -25.9490    3.3350 O.3      88   A    0.0000
   2816 C2'       -14.8830  -26.1150    5.3340 C.3      88   A    0.0000
   2817 O2'       -13.9470  -25.2590    5.9570 O.3      88   A    0.0000
   2818 C1'       -16.0400  -25.3390    4.7250 C.3      88   A    0.0000
   2819 N1        -19.6540  -21.8370    5.6360 N.ar     88   A    0.0000
   2820 C2        -18.8630  -22.0730    4.5780 C.ar     88   A    0.0000
   2821 N3        -17.9390  -23.0190    4.4120 N.ar     88   A    0.0000
   2822 C4        -17.8590  -23.7970    5.5070 C.ar     88   A    0.0000
   2823 C5        -18.5980  -23.6820    6.6680 C.ar     88   A    0.0000
   2824 C6        -19.5410  -22.6390    6.7190 C.ar     88   A    0.0000
   2825 N6        -20.3290  -22.4040    7.7710 N.pl3    88   A    0.0000
   2826 N7        -18.2370  -24.6680    7.5750 N.ar     88   A    0.0000
   2827 C8        -17.2980  -25.3440    6.9530 C.ar     88   A    0.0000
   2828 N9        -17.0360  -24.8790    5.6910 N.ar     88   A    0.0000
   2829 OP1       -16.3660  -31.4180    2.5240 O.co2    88   A    0.0000
   2830 OP2       -14.4120  -30.3390    1.2850 O.co2    88   A    0.0000
   2831 HO2'      -13.2330  -25.7810    6.3290 H        88   A    0.0000
   2832 H2        -18.9940  -21.4020    3.7430 H        88   A    0.0000
   2833 H8        -16.7820  -26.1840    7.3940 H        88   A    0.0000
   2834 H1'       -15.6470  -24.4800    4.1800 H        88   A    0.0000
   2835 H2'       -15.2630  -26.8360    6.0580 H        88   A    0.0000
   2836 H3'       -13.8060  -27.7490    4.3750 H        88   A    0.0000
   2837 H4'       -15.4700  -26.9940    2.2750 H        88   A    0.0000
   2838 H5'       -16.8090  -28.8210    2.6780 H        88   A    0.0000
   2839 H61       -20.9890  -21.6400    7.7460 H        88   A    0.0000
   2840 H62       -20.2660  -22.9910    8.5900 H        88   A    0.0000
   2841 H5''      -16.7280  -28.6300    4.4420 H        88   A    0.0000
   2842 P         -12.3660  -26.5010    2.4060 P.3      89   G    0.0000
   2843 C5'       -10.7310  -25.1520    0.8600 C.3      89   G    0.0000
   2844 O5'       -11.6270  -25.1640    1.9650 O.3      89   G    0.0000
   2845 C4'       -10.2390  -23.7580    0.5650 C.3      89   G    0.0000
   2846 O4'       -11.3770  -22.9000    0.2800 O.3      89   G    0.0000
   2847 C3'        -9.4780  -23.0860    1.7030 C.3      89   G    0.0000
   2848 O3'        -8.4700  -22.2360    1.1550 O.3      89   G    0.0000
   2849 C2'       -10.5590  -22.2380    2.3730 C.3      89   G    0.0000
   2850 O2'       -10.0700  -21.1350    3.1100 O.3      89   G    0.0000
   2851 C1'       -11.3860  -21.7990    1.1700 C.3      89   G    0.0000
   2852 N1        -14.9120  -18.1140    1.4390 N.am     89   G    0.0000
   2853 C2        -13.5820  -18.0300    1.1020 C.2      89   G    0.0000
   2854 N2        -13.1270  -16.8060    0.7900 N.pl3    89   G    0.0000
   2855 N3        -12.7620  -19.0730    1.0660 N.2      89   G    0.0000
   2856 C4        -13.3780  -20.2250    1.4100 C.ar     89   G    0.0000
   2857 C5        -14.7000  -20.4130    1.7680 C.ar     89   G    0.0000
   2858 C6        -15.5760  -19.2880    1.7970 C.2      89   G    0.0000
   2859 O6        -16.7860  -19.2420    2.0910 O.2      89   G    0.0000
   2860 N7        -14.9410  -21.7500    2.0470 N.ar     89   G    0.0000
   2861 C8        -13.7860  -22.3340    1.8570 C.ar     89   G    0.0000
   2862 N9        -12.7850  -21.4680    1.4790 N.ar     89   G    0.0000
   2863 OP1       -12.9920  -27.1480    1.2240 O.co2    89   G    0.0000
   2864 OP2       -11.4760  -27.3070    3.2700 O.co2    89   G    0.0000
   2865 HO2'      -10.1510  -21.3150    4.0490 H        89   G    0.0000
   2866 H1        -15.4500  -17.2600    1.4270 H        89   G    0.0000
   2867 H8        -13.6320  -23.3950    1.9860 H        89   G    0.0000
   2868 H1'       -10.9070  -20.9430    0.6930 H        89   G    0.0000
   2869 H2'       -11.1660  -22.8690    3.0220 H        89   G    0.0000
   2870 H21       -13.7520  -16.0130    0.8140 H        89   G    0.0000
   2871 H3'        -9.0560  -23.8180    2.3920 H        89   G    0.0000
   2872 H22       -12.1590  -16.6790    0.5300 H        89   G    0.0000
   2873 H4'        -9.5960  -23.7920   -0.3140 H        89   G    0.0000
   2874 H5'       -11.2470  -25.5380   -0.0180 H        89   G    0.0000
   2875 H5''       -9.8780  -25.7920    1.0850 H        89   G    0.0000
   2876 P          -6.9190  -22.6130    1.3260 P.3      90   A    0.0000
   2877 C5'        -6.5380  -21.0960    3.4220 C.3      90   A    0.0000
   2878 O5'        -6.6790  -22.4010    2.8790 O.3      90   A    0.0000
   2879 C4'        -5.5250  -21.0810    4.5300 C.3      90   A    0.0000
   2880 O4'        -6.0110  -21.9120    5.6170 O.3      90   A    0.0000
   2881 C3'        -4.1600  -21.6390    4.1510 C.3      90   A    0.0000
   2882 O3'        -3.1590  -20.9830    4.9190 O.3      90   A    0.0000
   2883 C2'        -4.2660  -23.0950    4.5820 C.3      90   A    0.0000
   2884 O2'        -3.0270  -23.7230    4.8310 O.3      90   A    0.0000
   2885 C1'        -5.1080  -22.9770    5.8500 C.3      90   A    0.0000
   2886 N1         -6.7000  -26.2170    9.5360 N.ar     90   A    0.0000
   2887 C2         -5.9270  -25.1210    9.5720 C.ar     90   A    0.0000
   2888 N3         -5.5490  -24.3190    8.5780 N.ar     90   A    0.0000
   2889 C4         -6.0570  -24.7430    7.4040 C.ar     90   A    0.0000
   2890 C5         -6.8630  -25.8500    7.2030 C.ar     90   A    0.0000
   2891 C6         -7.1920  -26.6170    8.3400 C.ar     90   A    0.0000
   2892 N6         -7.9620  -27.7100    8.3010 N.pl3    90   A    0.0000
   2893 N7         -7.1960  -25.9780    5.8600 N.ar     90   A    0.0000
   2894 C8         -6.5980  -24.9630    5.2870 C.ar     90   A    0.0000
   2895 N9         -5.8910  -24.1760    6.1610 N.ar     90   A    0.0000
   2896 OP1        -6.7740  -24.0450    0.9910 O.co2    90   A    0.0000
   2897 OP2        -6.1400  -21.6200    0.5530 O.co2    90   A    0.0000
   2898 HO2'       -2.8650  -24.3900    4.1590 H        90   A    0.0000
   2899 H2         -5.5570  -24.8480   10.5500 H        90   A    0.0000
   2900 H8         -6.6560  -24.7640    4.2270 H        90   A    0.0000
   2901 H1'        -4.4640  -22.7310    6.6950 H        90   A    0.0000
   2902 H2'        -4.8160  -23.6590    3.8300 H        90   A    0.0000
   2903 H3'        -3.9700  -21.5490    3.0820 H        90   A    0.0000
   2904 H4'        -5.4060  -20.0590    4.8890 H        90   A    0.0000
   2905 H5'        -6.2140  -20.4160    2.6340 H        90   A    0.0000
   2906 H61        -8.1630  -28.2170    9.1510 H        90   A    0.0000
   2907 H62        -8.3430  -28.0280    7.4210 H        90   A    0.0000
   2908 H5''       -7.5000  -20.7640    3.8110 H        90   A    0.0000
   2909 P          -2.7980  -19.4480    4.6160 P.3      91   G    0.0000
   2910 C5'        -0.3200  -20.2920    4.5700 C.3      91   G    0.0000
   2911 O5'        -1.2720  -19.3520    5.0490 O.3      91   G    0.0000
   2912 C4'         0.8530  -20.3970    5.5030 C.3      91   G    0.0000
   2913 O4'         1.3870  -19.0750    5.7540 O.3      91   G    0.0000
   2914 C3'         0.5470  -20.9690    6.8810 C.3      91   G    0.0000
   2915 O3'         0.6190  -22.3840    6.8960 O.3      91   G    0.0000
   2916 C2'         1.5880  -20.3060    7.7770 C.3      91   G    0.0000
   2917 O2'         2.8180  -21.0160    7.7160 O.3      91   G    0.0000
   2918 C1'         1.7820  -18.9500    7.0960 C.3      91   G    0.0000
   2919 N1          0.4960  -16.1670   11.2560 N.am     91   G    0.0000
   2920 C2          1.3610  -17.2330   11.1820 C.2      91   G    0.0000
   2921 N2          1.9570  -17.6000   12.3260 N.pl3    91   G    0.0000
   2922 N3          1.6280  -17.8930   10.0670 N.2      91   G    0.0000
   2923 C4          0.9520  -17.3990    9.0090 C.ar     91   G    0.0000
   2924 C5          0.0650  -16.3430    8.9860 C.ar     91   G    0.0000
   2925 C6         -0.2160  -15.6380   10.1790 C.2      91   G    0.0000
   2926 O6         -0.9840  -14.6750   10.3250 O.2      91   G    0.0000
   2927 N7         -0.4320  -16.1290    7.7140 N.ar     91   G    0.0000
   2928 C8          0.1500  -17.0460    6.9990 C.ar     91   G    0.0000
   2929 N9          0.9890  -17.8640    7.7130 N.ar     91   G    0.0000
   2930 OP1        -3.6360  -18.6110    5.5200 O.co2    91   G    0.0000
   2931 OP2        -2.9180  -19.2580    3.1440 O.co2    91   G    0.0000
   2932 HO2'        2.7160  -21.8720    8.1390 H        91   G    0.0000
   2933 H1          0.3660  -15.7330   12.1590 H        91   G    0.0000
   2934 H8         -0.0130  -17.1540    5.9370 H        91   G    0.0000
   2935 H1'         2.8380  -18.6820    7.1320 H        91   G    0.0000
   2936 H2'         1.2320  -20.1980    8.8020 H        91   G    0.0000
   2937 H21         1.7590  -17.1010   13.1820 H        91   G    0.0000
   2938 H3'        -0.4500  -20.6540    7.1900 H        91   G    0.0000
   2939 H22         2.6030  -18.3760   12.3330 H        91   G    0.0000
   2940 H4'         1.6240  -21.0060    5.0320 H        91   G    0.0000
   2941 H5'        -0.7960  -21.2690    4.4850 H        91   G    0.0000
   2942 H5''        0.0310  -19.9780    3.5880 H        91   G    0.0000
   2943 P          -0.5690  -23.2640    7.5160 P.3      92   U    0.0000
   2944 C5'         0.9360  -23.4920    9.6510 C.3      92   U    0.0000
   2945 O5'        -0.3180  -23.1240    9.0850 O.3      92   U    0.0000
   2946 C4'         0.9490  -23.3450   11.1530 C.3      92   U    0.0000
   2947 O4'         0.8780  -21.9370   11.4920 O.3      92   U    0.0000
   2948 C3'        -0.1980  -24.0320   11.8900 C.3      92   U    0.0000
   2949 O3'         0.2790  -24.5880   13.1110 O.3      92   U    0.0000
   2950 C2'        -1.1640  -22.8900   12.1880 C.3      92   U    0.0000
   2951 O2'        -1.9520  -23.0760   13.3440 O.3      92   U    0.0000
   2952 C1'        -0.2320  -21.6900   12.3340 C.3      92   U    0.0000
   2953 N1         -0.8540  -20.4320   11.9010 N.am     92   U    0.0000
   2954 C2         -1.0450  -19.4080   12.7980 C.2      92   U    0.0000
   2955 O2         -0.6960  -19.4810   13.9600 O.2      92   U    0.0000
   2956 N3         -1.6600  -18.2990   12.2680 N.am     92   U    0.0000
   2957 C4         -2.0960  -18.1310   10.9650 C.2      92   U    0.0000
   2958 O4         -2.6430  -17.0860   10.6120 O.2      92   U    0.0000
   2959 C5         -1.8590  -19.2430   10.1070 C.2      92   U    0.0000
   2960 C6         -1.2690  -20.3320   10.5970 C.2      92   U    0.0000
   2961 OP1        -0.3400  -24.6700    7.0850 O.co2    92   U    0.0000
   2962 OP2        -1.8400  -22.6060    7.1420 O.co2    92   U    0.0000
   2963 HO2'       -2.5250  -23.8360   13.2210 H        92   U    0.0000
   2964 H3         -1.8110  -17.5230   12.8970 H        92   U    0.0000
   2965 H5         -2.1540  -19.2040    9.0690 H        92   U    0.0000
   2966 H6         -1.1110  -21.1730    9.9380 H        92   U    0.0000
   2967 H1'         0.1000  -21.6030   13.3690 H        92   U    0.0000
   2968 H2'        -1.8160  -22.7370   11.3280 H        92   U    0.0000
   2969 H3'        -0.6670  -24.7930   11.2670 H        92   U    0.0000
   2970 H4'         1.8910  -23.7440   11.5310 H        92   U    0.0000
   2971 H5'         1.7120  -22.8530    9.2290 H        92   U    0.0000
   2972 H5''        1.1520  -24.5290    9.3940 H        92   U    0.0000
   2973 P           0.5930  -26.1590   13.2000 P.3      93   C    0.0000
   2974 C5'        -1.6600  -27.0460   14.1870 C.3      93   C    0.0000
   2975 O5'        -0.8430  -26.8160   13.0500 O.3      93   C    0.0000
   2976 C4'        -2.8350  -27.9170   13.8420 C.3      93   C    0.0000
   2977 O4'        -3.6890  -27.2260   12.9000 O.3      93   C    0.0000
   2978 C3'        -2.4980  -29.2270   13.1550 C.3      93   C    0.0000
   2979 O3'        -2.1320  -30.2360   14.0730 O.3      93   C    0.0000
   2980 C2'        -3.7660  -29.5450   12.3690 C.3      93   C    0.0000
   2981 O2'        -4.7370  -30.1630   13.2020 O.3      93   C    0.0000
   2982 C1'        -4.2670  -28.1490   12.0040 C.3      93   C    0.0000
   2983 N1         -3.9120  -27.7540   10.6260 N.am     93   C    0.0000
   2984 C2         -4.5880  -28.3350    9.5490 C.2      93   C    0.0000
   2985 O2         -5.4440  -29.2040    9.7780 O.2      93   C    0.0000
   2986 N3         -4.2850  -27.9490    8.2880 N.2      93   C    0.0000
   2987 C4         -3.3590  -27.0130    8.0840 C.2      93   C    0.0000
   2988 N4         -3.0880  -26.6620    6.8290 N.pl3    93   C    0.0000
   2989 C5         -2.6650  -26.3960    9.1620 C.2      93   C    0.0000
   2990 C6         -2.9770  -26.7870   10.4050 C.2      93   C    0.0000
   2991 OP1         1.1230  -26.4180   14.5580 O.co2    93   C    0.0000
   2992 OP2         1.4310  -26.5060   12.0260 O.co2    93   C    0.0000
   2993 HO2'       -4.4390  -31.0440   13.4420 H        93   C    0.0000
   2994 H5         -1.9150  -25.6400    8.9840 H        93   C    0.0000
   2995 H6         -2.4790  -26.3270   11.2460 H        93   C    0.0000
   2996 H1'        -5.3510  -28.1200   12.1140 H        93   C    0.0000
   2997 H2'        -3.5540  -30.1430   11.4820 H        93   C    0.0000
   2998 H3'        -1.6760  -29.0630   12.4580 H        93   C    0.0000
   2999 H4'        -3.4020  -28.1260   14.7500 H        93   C    0.0000
   3000 H41        -3.5800  -27.1010    6.0640 H        93   C    0.0000
   3001 H5'        -1.0670  -27.5380   14.9580 H        93   C    0.0000
   3002 H42        -2.3900  -25.9560    6.6420 H        93   C    0.0000
   3003 H5''       -2.0210  -26.0900   14.5680 H        93   C    0.0000
   3004 P          -0.8150  -31.1170   13.8260 P.3      94   U    0.0000
   3005 C5'        -2.3950  -33.0580   13.0670 C.3      94   U    0.0000
   3006 O5'        -1.3110  -32.1950   12.7710 O.3      94   U    0.0000
   3007 C4'        -2.8870  -33.7520   11.8270 C.3      94   U    0.0000
   3008 O4'        -3.5640  -32.8000   10.9720 O.3      94   U    0.0000
   3009 C3'        -1.8110  -34.3490   10.9350 C.3      94   U    0.0000
   3010 O3'        -1.3600  -35.6110   11.3870 O.3      94   U    0.0000
   3011 C2'        -2.4870  -34.3920    9.5700 C.3      94   U    0.0000
   3012 O2'        -3.3470  -35.5180    9.4700 O.3      94   U    0.0000
   3013 C1'        -3.3490  -33.1300    9.6160 C.3      94   U    0.0000
   3014 N1         -2.7050  -31.9790    8.9440 N.am     94   U    0.0000
   3015 C2         -2.8820  -31.8590    7.5750 C.2      94   U    0.0000
   3016 O2         -3.5130  -32.6750    6.9230 O.2      94   U    0.0000
   3017 N3         -2.2860  -30.7650    6.9960 N.am     94   U    0.0000
   3018 C4         -1.5540  -29.7930    7.6400 C.2      94   U    0.0000
   3019 O4         -1.0760  -28.8590    6.9880 O.2      94   U    0.0000
   3020 C5         -1.4250  -29.9830    9.0540 C.2      94   U    0.0000
   3021 C6         -1.9920  -31.0390    9.6480 C.2      94   U    0.0000
   3022 OP1        -0.4900  -31.7790   15.1140 O.co2    94   U    0.0000
   3023 OP2         0.2010  -30.2290   13.2010 O.co2    94   U    0.0000
   3024 HO2'       -3.2520  -35.9170    8.6030 H        94   U    0.0000
   3025 H3         -2.3970  -30.6640    5.9970 H        94   U    0.0000
   3026 H5         -0.8680  -29.2700    9.6440 H        94   U    0.0000
   3027 H6         -1.8850  -31.1570   10.7160 H        94   U    0.0000
   3028 H1'        -4.3080  -33.3330    9.1400 H        94   U    0.0000
   3029 H2'        -1.7630  -34.3610    8.7560 H        94   U    0.0000
   3030 H3'        -0.9650  -33.6630   10.8910 H        94   U    0.0000
   3031 H4'        -3.5880  -34.5360   12.1120 H        94   U    0.0000
   3032 H5'        -3.2100  -32.4730   13.4950 H        94   U    0.0000
   3033 H5''       -2.0720  -33.8050   13.7920 H        94   U    0.0000
   3034 P           0.1560  -36.0660   11.1300 P.3      95   G    0.0000
   3035 C5'        -0.5870  -37.2060    8.8970 C.3      95   G    0.0000
   3036 O5'         0.2110  -36.2340    9.5490 O.3      95   G    0.0000
   3037 C4'        -0.3420  -37.2110    7.4120 C.3      95   G    0.0000
   3038 O4'        -0.8960  -36.0110    6.8180 O.3      95   G    0.0000
   3039 C3'         1.1110  -37.2020    6.9780 C.3      95   G    0.0000
   3040 O3'         1.7050  -38.4870    7.0300 O.3      95   G    0.0000
   3041 C2'         1.0370  -36.6190    5.5700 C.3      95   G    0.0000
   3042 O2'         0.6490  -37.6150    4.6360 O.3      95   G    0.0000
   3043 C1'        -0.1140  -35.6190    5.7120 C.3      95   G    0.0000
   3044 N1          1.3970  -31.3040    3.4860 N.am     95   G    0.0000
   3045 C2          1.0250  -32.5010    2.9240 C.2      95   G    0.0000
   3046 N2          1.0480  -32.5700    1.5840 N.pl3    95   G    0.0000
   3047 N3          0.6540  -33.5590    3.6230 N.2      95   G    0.0000
   3048 C4          0.6800  -33.3260    4.9510 C.ar     95   G    0.0000
   3049 C5          1.0340  -32.1700    5.6140 C.ar     95   G    0.0000
   3050 C6          1.4330  -31.0410    4.8510 C.2      95   G    0.0000
   3051 O6          1.7870  -29.9230    5.2460 O.2      95   G    0.0000
   3052 N7          0.9280  -32.3430    6.9890 N.ar     95   G    0.0000
   3053 C8          0.5210  -33.5780    7.1290 C.ar     95   G    0.0000
   3054 N9          0.3570  -34.2360    5.9320 N.ar     95   G    0.0000
   3055 OP1         1.0330  -34.9400   11.5490 O.co2    95   G    0.0000
   3056 OP2         0.3280  -37.3880   11.7830 O.co2    95   G    0.0000
   3057 HO2'        1.3590  -38.2530    4.5340 H        95   G    0.0000
   3058 H1          1.6650  -30.5580    2.8600 H        95   G    0.0000
   3059 H8          0.3330  -34.0350    8.0890 H        95   G    0.0000
   3060 H1'        -0.7270  -35.6490    4.8110 H        95   G    0.0000
   3061 H2'         1.9670  -36.1310    5.2820 H        95   G    0.0000
   3062 H21         1.3300  -31.7660    1.0420 H        95   G    0.0000
   3063 H3'         1.6730  -36.5220    7.6180 H        95   G    0.0000
   3064 H22         0.7840  -33.4260    1.1170 H        95   G    0.0000
   3065 H4'        -0.8350  -38.0800    6.9770 H        95   G    0.0000
   3066 H5'        -0.3460  -38.1900    9.2990 H        95   G    0.0000
   3067 H5''       -1.6380  -36.9900    9.0850 H        95   G    0.0000
   3068 P           3.2230  -38.6580    7.5260 P.3      96   G    0.0000
   3069 C5'         3.7270  -39.4320    5.0760 C.3      96   G    0.0000
   3070 O5'         4.0440  -38.5790    6.1650 O.3      96   G    0.0000
   3071 C4'         4.2720  -38.8970    3.7770 C.3      96   G    0.0000
   3072 O4'         3.6330  -37.6380    3.4600 O.3      96   G    0.0000
   3073 C3'         5.7600  -38.5860    3.7580 C.3      96   G    0.0000
   3074 O3'         6.5470  -39.7380    3.5010 O.3      96   G    0.0000
   3075 C2'         5.8800  -37.5210    2.6710 C.3      96   G    0.0000
   3076 O2'         5.9770  -38.1240    1.3870 O.3      96   G    0.0000
   3077 C1'         4.5300  -36.8000    2.7700 C.3      96   G    0.0000
   3078 N1          4.7050  -31.7250    2.3100 N.am     96   G    0.0000
   3079 C2          4.6490  -32.6910    1.3380 C.2      96   G    0.0000
   3080 N2          4.6330  -32.2590    0.0680 N.pl3    96   G    0.0000
   3081 N3          4.6090  -33.9880    1.5870 N.2      96   G    0.0000
   3082 C4          4.6330  -34.2540    2.9110 C.ar     96   G    0.0000
   3083 C5          4.6900  -33.3610    3.9620 C.ar     96   G    0.0000
   3084 C6          4.7290  -31.9680    3.6810 C.2      96   G    0.0000
   3085 O6          4.7810  -31.0150    4.4810 O.2      96   G    0.0000
   3086 N7          4.7000  -34.0360    5.1770 N.ar     96   G    0.0000
   3087 C8          4.6480  -35.3000    4.8460 C.ar     96   G    0.0000
   3088 N9          4.6190  -35.5090    3.4860 N.ar     96   G    0.0000
   3089 OP1         3.3430  -40.0190    8.1110 O.co2    96   G    0.0000
   3090 OP2         3.5360  -37.4870    8.3780 O.co2    96   G    0.0000
   3091 HO2'        6.8180  -38.5800    1.3090 H        96   G    0.0000
   3092 H1          4.7310  -30.7620    2.0080 H        96   G    0.0000
   3093 H8          4.6290  -36.1020    5.5700 H        96   G    0.0000
   3094 H1'         4.1480  -36.6230    1.7650 H        96   G    0.0000
   3095 H2'         6.7130  -36.8440    2.8610 H        96   G    0.0000
   3096 H21         4.6620  -31.2690   -0.1290 H        96   G    0.0000
   3097 H3'         6.0510  -38.1570    4.7170 H        96   G    0.0000
   3098 H22         4.5910  -32.9240   -0.6910 H        96   G    0.0000
   3099 H4'         4.0520  -39.6110    2.9840 H        96   G    0.0000
   3100 H5'         2.6430  -39.5170    4.9960 H        96   G    0.0000
   3101 H5''        4.1500  -40.4190    5.2600 H        96   G    0.0000
   3102 P           7.9560  -39.9450    4.2390 P.3      97   A    0.0000
   3103 C5'         8.5480  -39.9790    6.7900 C.3      97   A    0.0000
   3104 O5'         7.5820  -39.7590    5.7700 O.3      97   A    0.0000
   3105 C4'         8.3590  -39.0210    7.9340 C.3      97   A    0.0000
   3106 O4'         8.9480  -37.7460    7.5640 O.3      97   A    0.0000
   3107 C3'         6.9000  -38.7530    8.3010 C.3      97   A    0.0000
   3108 O3'         6.7010  -38.7570    9.7250 O.3      97   A    0.0000
   3109 C2'         6.6080  -37.3700    7.7140 C.3      97   A    0.0000
   3110 O2'         5.7040  -36.5940    8.4690 O.3      97   A    0.0000
   3111 C1'         7.9890  -36.7080    7.6360 C.3      97   A    0.0000
   3112 N1          7.9020  -31.9200    5.6050 N.ar     97   A    0.0000
   3113 C2          7.7320  -32.3560    6.8580 C.ar     97   A    0.0000
   3114 N3          7.7720  -33.6020    7.3300 N.ar     97   A    0.0000
   3115 C4          8.0220  -34.4890    6.3480 C.ar     97   A    0.0000
   3116 C5          8.2150  -34.1900    5.0090 C.ar     97   A    0.0000
   3117 C6          8.1470  -32.8330    4.6410 C.ar     97   A    0.0000
   3118 N6          8.3140  -32.4040    3.3890 N.pl3    97   A    0.0000
   3119 N7          8.4500  -35.3420    4.2720 N.ar     97   A    0.0000
   3120 C8          8.3880  -36.3000    5.1650 C.ar     97   A    0.0000
   3121 N9          8.1470  -35.8620    6.4460 N.ar     97   A    0.0000
   3122 OP1         8.8460  -38.8460    3.7990 O.co2    97   A    0.0000
   3123 OP2         8.3740  -41.3460    3.9910 O.co2    97   A    0.0000
   3124 HO2'        5.0090  -36.2630    7.8950 H        97   A    0.0000
   3125 H2          7.5340  -31.5890    7.5930 H        97   A    0.0000
   3126 H8          8.5160  -37.3430    4.9160 H        97   A    0.0000
   3127 H1'         8.1600  -36.1130    8.5330 H        97   A    0.0000
   3128 H2'         6.2150  -37.4900    6.7040 H        97   A    0.0000
   3129 H3'         6.2570  -39.4980    7.8330 H        97   A    0.0000
   3130 H4'         8.8780  -39.4090    8.8100 H        97   A    0.0000
   3131 H5'         8.4470  -41.0000    7.1610 H        97   A    0.0000
   3132 H61         8.2560  -31.4180    3.1810 H        97   A    0.0000
   3133 H62         8.5000  -33.0660    2.6490 H        97   A    0.0000
   3134 H5''        9.5460  -39.8470    6.3730 H        97   A    0.0000
   3135 P           7.8090  -38.1940   10.7440 P.3      98   U    0.0000
   3136 C5'        10.3710  -38.6900   10.5330 C.3      98   U    0.0000
   3137 O5'         9.0390  -39.1770   10.5200 O.3      98   U    0.0000
   3138 C4'        11.0520  -38.9930   11.8400 C.3      98   U    0.0000
   3139 O4'        10.2420  -39.9160   12.6100 O.3      98   U    0.0000
   3140 C3'        12.4060  -39.6770   11.7400 C.3      98   U    0.0000
   3141 O3'        13.4620  -38.7680   11.4790 O.3      98   U    0.0000
   3142 C2'        12.5200  -40.3790   13.0870 C.3      98   U    0.0000
   3143 O2'        12.9020  -39.4590   14.0980 O.3      98   U    0.0000
   3144 C1'        11.0700  -40.7950   13.3370 C.3      98   U    0.0000
   3145 N1         10.7980  -42.1740   12.8820 N.am     98   U    0.0000
   3146 C2          9.5130  -42.6540   13.0540 C.2      98   U    0.0000
   3147 O2          8.6200  -41.9910   13.5530 O.2      98   U    0.0000
   3148 N3          9.3110  -43.9390   12.6180 N.am     98   U    0.0000
   3149 C4         10.2470  -44.7740   12.0410 C.2      98   U    0.0000
   3150 O4          9.9160  -45.9100   11.6980 O.2      98   U    0.0000
   3151 C5         11.5520  -44.2050   11.9010 C.2      98   U    0.0000
   3152 C6         11.7780  -42.9540   12.3160 C.2      98   U    0.0000
   3153 OP1         7.2660  -38.3750   12.1140 O.co2    98   U    0.0000
   3154 OP2         8.1660  -36.8270   10.3000 O.co2    98   U    0.0000
   3155 HO2'       13.8110  -39.1860   13.9560 H        98   U    0.0000
   3156 H3          8.3790  -44.3140   12.7300 H        98   U    0.0000
   3157 H5         12.3510  -44.7830   11.4610 H        98   U    0.0000
   3158 H6         12.7700  -42.5400   12.2030 H        98   U    0.0000
   3159 H1'        10.8460  -40.7110   14.4000 H        98   U    0.0000
   3160 H2'        13.1900  -41.2380   13.0430 H        98   U    0.0000
   3161 H3'        12.3720  -40.4250   10.9480 H        98   U    0.0000
   3162 H4'        11.1650  -38.0670   12.4030 H        98   U    0.0000
   3163 H5'        10.9290  -39.1620    9.7240 H        98   U    0.0000
   3164 H5''       10.3590  -37.6110   10.3770 H        98   U    0.0000
   3165 P          14.2300  -38.7990   10.0670 P.3      99   G    0.0000
   3166 C5'        13.2880  -40.1910    8.0540 C.3      99   G    0.0000
   3167 O5'        13.0760  -39.1950    9.0440 O.3      99   G    0.0000
   3168 C4'        13.2060  -39.6160    6.6610 C.3      99   G    0.0000
   3169 O4'        11.9800  -38.8500    6.5130 O.3      99   G    0.0000
   3170 C3'        14.3000  -38.6310    6.2790 C.3      99   G    0.0000
   3171 O3'        15.5110  -39.2630    5.8940 O.3      99   G    0.0000
   3172 C2'        13.6420  -37.8310    5.1610 C.3      99   G    0.0000
   3173 O2'        13.6360  -38.5690    3.9480 O.3      99   G    0.0000
   3174 C1'        12.2060  -37.7390    5.6700 C.3      99   G    0.0000
   3175 N1         11.1800  -32.7380    5.5150 N.am     99   G    0.0000
   3176 C2         11.3520  -33.6210    4.4790 C.2      99   G    0.0000
   3177 N2         11.2370  -33.1100    3.2450 N.pl3    99   G    0.0000
   3178 N3         11.6200  -34.9070    4.6420 N.2      99   G    0.0000
   3179 C4         11.7020  -35.2520    5.9460 C.ar     99   G    0.0000
   3180 C5         11.5460  -34.4470    7.0540 C.ar     99   G    0.0000
   3181 C6         11.2590  -33.0690    6.8630 C.2      99   G    0.0000
   3182 O6         11.0840  -32.1940    7.7180 O.2      99   G    0.0000
   3183 N7         11.7100  -35.1820    8.2230 N.ar     99   G    0.0000
   3184 C8         11.9570  -36.3950    7.8140 C.ar     99   G    0.0000
   3185 N9         11.9710  -36.5070    6.4460 N.ar     99   G    0.0000
   3186 OP1        15.2370  -39.8870   10.1400 O.co2    99   G    0.0000
   3187 OP2        14.6960  -37.4180    9.7930 O.co2    99   G    0.0000
   3188 HO2'       14.5320  -38.6390    3.6110 H        99   G    0.0000
   3189 H1         10.9820  -31.7750    5.2810 H        99   G    0.0000
   3190 H8         12.1320  -37.2250    8.4820 H        99   G    0.0000
   3191 H1'        11.5170  -37.7750    4.8260 H        99   G    0.0000
   3192 H2'        14.0960  -36.8470    5.0390 H        99   G    0.0000
   3193 H21        11.0330  -32.1290    3.1210 H        99   G    0.0000
   3194 H3'        14.4960  -37.9700    7.1230 H        99   G    0.0000
   3195 H22        11.3530  -33.7080    2.4390 H        99   G    0.0000
   3196 H4'        13.2000  -40.4340    5.9410 H        99   G    0.0000
   3197 H5'        12.5280  -40.9640    8.1630 H        99   G    0.0000
   3198 H5''       14.2730  -40.6350    8.2000 H        99   G    0.0000
   3199 P          16.9300  -38.5770    6.2280 P.3     100   A    0.0000
   3200 C5'        16.9930  -37.6370    3.7800 C.3     100   A    0.0000
   3201 O5'        17.0010  -37.3820    5.1770 O.3     100   A    0.0000
   3202 C4'        16.7090  -36.3820    2.9920 C.3     100   A    0.0000
   3203 O4'        15.3880  -35.8780    3.3300 O.3     100   A    0.0000
   3204 C3'        17.6250  -35.2000    3.2650 C.3     100   A    0.0000
   3205 O3'        18.8680  -35.2840    2.5940 O.3     100   A    0.0000
   3206 C2'        16.7720  -34.0210    2.8320 C.3     100   A    0.0000
   3207 O2'        16.7150  -33.9330    1.4150 O.3     100   A    0.0000
   3208 C1'        15.4040  -34.4630    3.3410 C.3     100   A    0.0000
   3209 N1         14.1350  -30.4720    6.3050 N.ar    100   A    0.0000
   3210 C2         14.2700  -30.6080    4.9800 C.ar    100   A    0.0000
   3211 N3         14.6080  -31.6840    4.2730 N.ar    100   A    0.0000
   3212 C4         14.8190  -32.7320    5.0870 C.ar    100   A    0.0000
   3213 C5         14.7210  -32.7520    6.4680 C.ar    100   A    0.0000
   3214 C6         14.3580  -31.5470    7.0950 C.ar    100   A    0.0000
   3215 N6         14.2230  -31.4130    8.4160 N.pl3   100   A    0.0000
   3216 N7         15.0140  -34.0160    6.9650 N.ar    100   A    0.0000
   3217 C8         15.2790  -34.7190    5.8890 C.ar    100   A    0.0000
   3218 N9         15.1710  -34.0050    4.7210 N.ar    100   A    0.0000
   3219 OP1        16.8410  -38.0320    7.6080 O.co2   100   A    0.0000
   3220 OP2        17.9810  -39.5790    5.9250 O.co2   100   A    0.0000
   3221 HO2'       16.0470  -33.2920    1.1600 H       100   A    0.0000
   3222 H2         14.0770  -29.7160    4.4020 H       100   A    0.0000
   3223 H8         15.5560  -35.7630    5.9190 H       100   A    0.0000
   3224 H1'        14.6220  -34.0790    2.6860 H       100   A    0.0000
   3225 H2'        17.0980  -33.0870    3.2890 H       100   A    0.0000
   3226 H3'        17.8050  -35.1310    4.3380 H       100   A    0.0000
   3227 H4'        16.7380  -36.6160    1.9280 H       100   A    0.0000
   3228 H5'        17.9680  -38.0270    3.4860 H       100   A    0.0000
   3229 H61        13.9590  -30.5200    8.8090 H       100   A    0.0000
   3230 H62        14.3840  -32.2030    9.0230 H       100   A    0.0000
   3231 H5''       16.2280  -38.3800    3.5570 H       100   A    0.0000
   3232 P          20.2230  -34.9060    3.3700 P.3     101   G    0.0000
   3233 C5'        19.7070  -32.8240    1.8650 C.3     101   G    0.0000
   3234 O5'        20.5310  -33.4370    2.8420 O.3     101   G    0.0000
   3235 C4'        19.4270  -31.3850    2.2080 C.3     101   G    0.0000
   3236 O4'        18.2220  -31.2890    3.0060 O.3     101   G    0.0000
   3237 C3'        20.4810  -30.6850    3.0440 C.3     101   G    0.0000
   3238 O3'        21.5800  -30.2370    2.2770 O.3     101   G    0.0000
   3239 C2'        19.6930  -29.5560    3.6950 C.3     101   G    0.0000
   3240 O2'        19.5150  -28.4830    2.7850 O.3     101   G    0.0000
   3241 C1'        18.3360  -30.2240    3.9240 C.3     101   G    0.0000
   3242 N1         16.9060  -29.2890    8.7170 N.am    101   G    0.0000
   3243 C2         16.8900  -28.4590    7.6220 C.2     101   G    0.0000
   3244 N2         16.4260  -27.2180    7.8340 N.pl3   101   G    0.0000
   3245 N3         17.2940  -28.8190    6.4130 N.2     101   G    0.0000
   3246 C4         17.7190  -30.0980    6.3880 C.ar    101   G    0.0000
   3247 C5         17.7790  -31.0080    7.4230 C.ar    101   G    0.0000
   3248 C6         17.3450  -30.6090    8.7130 C.2     101   G    0.0000
   3249 O6         17.3180  -31.2720    9.7560 O.2     101   G    0.0000
   3250 N7         18.2850  -32.2250    6.9840 N.ar    101   G    0.0000
   3251 C8         18.5200  -32.0340    5.7130 C.ar    101   G    0.0000
   3252 N9         18.2040  -30.7640    5.2880 N.ar    101   G    0.0000
   3253 OP1        21.2730  -35.8450    2.9010 O.co2   101   G    0.0000
   3254 OP2        19.8990  -34.8630    4.8190 O.co2   101   G    0.0000
   3255 HO2'       18.5800  -28.2780    2.7110 H       101   G    0.0000
   3256 H1         16.5740  -28.9110    9.5930 H       101   G    0.0000
   3257 H8         18.9220  -32.7960    5.0620 H       101   G    0.0000
   3258 H1'        17.5410  -29.5010    3.7410 H       101   G    0.0000
   3259 H2'        20.1480  -29.2270    4.6290 H       101   G    0.0000
   3260 H21        16.1170  -26.9440    8.7550 H       101   G    0.0000
   3261 H3'        20.8360  -31.3660    3.8170 H       101   G    0.0000
   3262 H22        16.3860  -26.5570    7.0710 H       101   G    0.0000
   3263 H4'        19.2830  -30.8250    1.2840 H       101   G    0.0000
   3264 H5'        18.7630  -33.3660    1.8070 H       101   G    0.0000
   3265 H5''       20.2060  -32.8710    0.8960 H       101   G    0.0000
   3266 P          22.9360  -29.7790    3.0020 P.3     102   A    0.0000
   3267 C5'        22.5210  -27.5390    1.7000 C.3     102   A    0.0000
   3268 O5'        22.8570  -28.1920    2.9170 O.3     102   A    0.0000
   3269 C4'        22.1800  -26.0910    1.9360 C.3     102   A    0.0000
   3270 O4'        20.9830  -26.0020    2.7490 O.3     102   A    0.0000
   3271 C3'        23.2310  -25.2870    2.6860 C.3     102   A    0.0000
   3272 O3'        24.2060  -24.7410    1.8170 O.3     102   A    0.0000
   3273 C2'        22.4180  -24.2280    3.4270 C.3     102   A    0.0000
   3274 O2'        22.1630  -23.1090    2.5920 O.3     102   A    0.0000
   3275 C1'        21.0960  -24.9560    3.6810 C.3     102   A    0.0000
   3276 N1         18.5670  -24.8670    8.1310 N.ar    102   A    0.0000
   3277 C2         18.4230  -24.1820    6.9910 C.ar    102   A    0.0000
   3278 N3         19.1280  -24.2610    5.8690 N.ar    102   A    0.0000
   3279 C4         20.0930  -25.1860    5.9900 C.ar    102   A    0.0000
   3280 C5         20.3650  -25.9740    7.0940 C.ar    102   A    0.0000
   3281 C6         19.5420  -25.7900    8.2200 C.ar    102   A    0.0000
   3282 N6         19.6600  -26.4630    9.3660 N.pl3   102   A    0.0000
   3283 N7         21.4470  -26.8130    6.8380 N.ar    102   A    0.0000
   3284 C8         21.7930  -26.5160    5.6060 C.ar    102   A    0.0000
   3285 N9         21.0180  -25.5320    5.0370 N.ar    102   A    0.0000
   3286 OP1        22.8440  -30.2150    4.4170 O.co2   102   A    0.0000
   3287 OP2        24.0640  -30.2760    2.1760 O.co2   102   A    0.0000
   3288 HO2'       21.8720  -23.4130    1.7290 H       102   A    0.0000
   3289 H2         17.6180  -23.4620    6.9820 H       102   A    0.0000
   3290 H8         22.6090  -26.9990    5.0890 H       102   A    0.0000
   3291 H1'        20.2700  -24.2590    3.5400 H       102   A    0.0000
   3292 H2'        22.8990  -23.9320    4.3590 H       102   A    0.0000
   3293 H3'        23.7230  -25.9330    3.4130 H       102   A    0.0000
   3294 H4'        21.9900  -25.6130    0.9750 H       102   A    0.0000
   3295 H5'        21.6620  -28.0390    1.2530 H       102   A    0.0000
   3296 H61        19.3260  -26.3920   10.3170 H       102   A    0.0000
   3297 H62        20.2500  -27.2740    9.2500 H       102   A    0.0000
   3298 H5''       23.3670  -27.6010    1.0150 H       102   A    0.0000
   3299 P          25.7420  -24.6390    2.2700 P.3     103   G    0.0000
   3300 C5'        26.4570  -24.2180    4.7460 C.3     103   G    0.0000
   3301 O5'        25.6760  -24.9560    3.8240 O.3     103   G    0.0000
   3302 C4'        25.6650  -23.8690    5.9760 C.3     103   G    0.0000
   3303 O4'        24.5300  -24.7650    6.0990 O.3     103   G    0.0000
   3304 C3'        26.4100  -23.9980    7.2910 C.3     103   G    0.0000
   3305 O3'        27.1580  -22.8400    7.5980 O.3     103   G    0.0000
   3306 C2'        25.3020  -24.2950    8.2960 C.3     103   G    0.0000
   3307 O2'        24.6520  -23.0980    8.7020 O.3     103   G    0.0000
   3308 C1'        24.3260  -25.1120    7.4500 C.3     103   G    0.0000
   3309 N1         23.9700  -29.1980   10.5000 N.am    103   G    0.0000
   3310 C2         23.6670  -27.8860   10.7680 C.2     103   G    0.0000
   3311 N2         23.2080  -27.6260   12.0020 N.pl3   103   G    0.0000
   3312 N3         23.7990  -26.9000    9.8900 N.2     103   G    0.0000
   3313 C4         24.2740  -27.3400    8.7020 C.ar    103   G    0.0000
   3314 C5         24.6100  -28.6250    8.3350 C.ar    103   G    0.0000
   3315 C6         24.4570  -29.6670    9.2840 C.2     103   G    0.0000
   3316 O6         24.6990  -30.8700    9.1460 O.2     103   G    0.0000
   3317 N7         25.0600  -28.6670    7.0250 N.ar    103   G    0.0000
   3318 C8         24.9970  -27.4290    6.6270 C.ar    103   G    0.0000
   3319 N9         24.5370  -26.5660    7.5940 N.ar    103   G    0.0000
   3320 OP1        26.4780  -25.7200    1.5680 O.co2   103   G    0.0000
   3321 OP2        26.1670  -23.2310    2.0610 O.co2   103   G    0.0000
   3322 HO2'       24.0560  -22.8060    8.0080 H       103   G    0.0000
   3323 H1         23.8290  -29.8710   11.2390 H       103   G    0.0000
   3324 H8         25.2780  -27.1110    5.6340 H       103   G    0.0000
   3325 H1'        23.3040  -24.8640    7.7370 H       103   G    0.0000
   3326 H2'        25.6710  -24.8640    9.1490 H       103   G    0.0000
   3327 H21        23.1050  -28.3760   12.6700 H       103   G    0.0000
   3328 H3'        27.0820  -24.8540    7.2380 H       103   G    0.0000
   3329 H22        22.9660  -26.6810   12.2610 H       103   G    0.0000
   3330 H4'        25.2980  -22.8470    5.8790 H       103   G    0.0000
   3331 H5'        26.7960  -23.2990    4.2690 H       103   G    0.0000
   3332 H5''       27.3240  -24.8120    5.0360 H       103   G    0.0000
   3333 P          28.5830  -22.9610    8.3230 P.3     104   A    0.0000
   3334 C5'        27.2800  -22.5300   10.5540 C.3     104   A    0.0000
   3335 O5'        28.1820  -23.3370    9.8150 O.3     104   A    0.0000
   3336 C4'        27.0140  -23.1200   11.9120 C.3     104   A    0.0000
   3337 O4'        26.0600  -24.2050   11.7970 O.3     104   A    0.0000
   3338 C3'        28.2110  -23.7490   12.5990 C.3     104   A    0.0000
   3339 O3'        29.0260  -22.7970   13.2510 O.3     104   A    0.0000
   3340 C2'        27.5680  -24.7560   13.5410 C.3     104   A    0.0000
   3341 O2'        27.0620  -24.1090   14.6980 O.3     104   A    0.0000
   3342 C1'        26.3860  -25.2350   12.7030 C.3     104   A    0.0000
   3343 N1         26.6540  -30.3750   12.7130 N.ar    104   A    0.0000
   3344 C2         26.3050  -29.4880   13.6560 C.ar    104   A    0.0000
   3345 N3         26.2560  -28.1590   13.5930 N.ar    104   A    0.0000
   3346 C4         26.6250  -27.7380   12.3710 C.ar    104   A    0.0000
   3347 C5         27.0110  -28.5230   11.3000 C.ar    104   A    0.0000
   3348 C6         27.0210  -29.9140   11.4980 C.ar    104   A    0.0000
   3349 N6         27.3660  -30.7940   10.5550 N.pl3   104   A    0.0000
   3350 N7         27.3230  -27.7350   10.2010 N.ar    104   A    0.0000
   3351 C8         27.1250  -26.5130   10.6250 C.ar    104   A    0.0000
   3352 N9         26.7090  -26.4450   11.9290 N.ar    104   A    0.0000
   3353 OP1        29.2040  -21.6110    8.2880 O.co2   104   A    0.0000
   3354 OP2        29.3070  -24.1000    7.6950 O.co2   104   A    0.0000
   3355 HO2'       27.7930  -23.8000   15.2390 H       104   A    0.0000
   3356 H2         26.0210  -29.9150   14.6070 H       104   A    0.0000
   3357 H8         27.2750  -25.6400   10.0060 H       104   A    0.0000
   3358 H1'        25.5340  -25.4340   13.3530 H       104   A    0.0000
   3359 H2'        28.2470  -25.5710   13.7930 H       104   A    0.0000
   3360 H3'        28.8070  -24.2820   11.8590 H       104   A    0.0000
   3361 H4'        26.5980  -22.3480   12.5600 H       104   A    0.0000
   3362 H5'        27.7100  -21.5350   10.6750 H       104   A    0.0000
   3363 H61        27.3510  -31.7840   10.7590 H       104   A    0.0000
   3364 H62        27.6410  -30.4710    9.6390 H       104   A    0.0000
   3365 H5''       26.3410  -22.4500   10.0070 H       104   A    0.0000
   3366 P          30.5630  -23.1320   13.5710 P.3     105   A    0.0000
   3367 C5'        31.3440  -24.7090   15.5040 C.3     105   A    0.0000
   3368 O5'        30.5020  -23.6550   15.0720 O.3     105   A    0.0000
   3369 C4'        30.6140  -25.6660   16.4130 C.3     105   A    0.0000
   3370 O4'        29.5010  -26.2720   15.7040 O.3     105   A    0.0000
   3371 C3'        31.4290  -26.8510   16.9000 C.3     105   A    0.0000
   3372 O3'        32.2590  -26.5330   17.9960 O.3     105   A    0.0000
   3373 C2'        30.3620  -27.8840   17.2110 C.3     105   A    0.0000
   3374 O2'        29.7150  -27.5790   18.4370 O.3     105   A    0.0000
   3375 C1'        29.3790  -27.6310   16.0730 C.3     105   A    0.0000
   3376 N1         29.5980  -32.3900   14.0480 N.ar    105   A    0.0000
   3377 C2         29.2550  -31.9490   15.2640 C.ar    105   A    0.0000
   3378 N3         29.2180  -30.7030   15.7330 N.ar    105   A    0.0000
   3379 C4         29.5930  -29.8300   14.7830 C.ar    105   A    0.0000
   3380 C5         29.9740  -30.1320   13.4870 C.ar    105   A    0.0000
   3381 C6         29.9710  -31.4880   13.1150 C.ar    105   A    0.0000
   3382 N6         30.3140  -31.9210   11.9000 N.pl3   105   A    0.0000
   3383 N7         30.2950  -28.9800   12.7870 N.ar    105   A    0.0000
   3384 C8         30.1060  -28.0220   13.6600 C.ar    105   A    0.0000
   3385 N9         29.6820  -28.4620   14.8900 N.ar    105   A    0.0000
   3386 OP1        31.3050  -21.8490   13.5090 O.co2   105   A    0.0000
   3387 OP2        30.9730  -24.2400   12.6690 O.co2   105   A    0.0000
   3388 HO2'       30.3200  -27.7330   19.1660 H       105   A    0.0000
   3389 H2         28.9660  -32.7150   15.9680 H       105   A    0.0000
   3390 H8         30.2680  -26.9790   13.4330 H       105   A    0.0000
   3391 H1'        28.3620  -27.8310   16.4130 H       105   A    0.0000
   3392 H2'        30.7560  -28.9000   17.1960 H       105   A    0.0000
   3393 H3'        32.0480  -27.2160   16.0800 H       105   A    0.0000
   3394 H4'        30.2320  -25.1180   17.2750 H       105   A    0.0000
   3395 H5'        32.1910  -24.2860   16.0440 H       105   A    0.0000
   3396 H61        30.2930  -32.9090   11.6920 H       105   A    0.0000
   3397 H62        30.5960  -31.2610   11.1890 H       105   A    0.0000
   3398 H5''       31.7100  -25.2520   14.6340 H       105   A    0.0000
   3399 P          33.8490  -26.4780   17.8040 P.3     106   G    0.0000
   3400 C5'        33.9800  -28.7450   19.1180 C.3     106   G    0.0000
   3401 O5'        34.2680  -28.0140   17.9340 O.3     106   G    0.0000
   3402 C4'        33.8060  -30.2260   18.8540 C.3     106   G    0.0000
   3403 O4'        32.8560  -30.4500   17.7840 O.3     106   G    0.0000
   3404 C3'        35.0340  -30.9880   18.3920 C.3     106   G    0.0000
   3405 O3'        35.9580  -31.2450   19.4340 O.3     106   G    0.0000
   3406 C2'        34.4170  -32.2510   17.7960 C.3     106   G    0.0000
   3407 O2'        34.0580  -33.1670   18.8200 O.3     106   G    0.0000
   3408 C1'        33.1300  -31.6990   17.1770 C.3     106   G    0.0000
   3409 N1         33.1290  -34.1970   12.7940 N.am    106   G    0.0000
   3410 C2         32.9920  -34.6500   14.0850 C.2     106   G    0.0000
   3411 N2         32.8280  -35.9740   14.2300 N.pl3   106   G    0.0000
   3412 N3         33.0130  -33.8630   15.1520 N.2     106   G    0.0000
   3413 C4         33.1870  -32.5630   14.8220 C.ar    106   G    0.0000
   3414 C5         33.3370  -32.0010   13.5690 C.ar    106   G    0.0000
   3415 C6         33.3110  -32.8650   12.4270 C.2     106   G    0.0000
   3416 O6         33.4240  -32.5930   11.2210 O.2     106   G    0.0000
   3417 N7         33.4910  -30.6200   13.6830 N.ar    106   G    0.0000
   3418 C8         33.4330  -30.3810   14.9720 C.ar    106   G    0.0000
   3419 N9         33.2500  -31.5220   15.7170 N.ar    106   G    0.0000
   3420 OP1        34.3960  -25.6990   18.9390 O.co2   106   G    0.0000
   3421 OP2        34.1060  -26.0000   16.4240 O.co2   106   G    0.0000
   3422 HO2'       33.5410  -33.8820   18.4430 H       106   G    0.0000
   3423 H1         33.0950  -34.8830   12.0540 H       106   G    0.0000
   3424 H8         33.5190  -29.3940   15.4010 H       106   G    0.0000
   3425 H1'        32.3100  -32.3860   17.3860 H       106   G    0.0000
   3426 H2'        35.0650  -32.7080   17.0490 H       106   G    0.0000
   3427 H21        32.8110  -36.5730   13.4170 H       106   G    0.0000
   3428 H3'        35.5310  -30.4240   17.6020 H       106   G    0.0000
   3429 H22        32.7210  -36.3710   15.1530 H       106   G    0.0000
   3430 H4'        33.4260  -30.6970   19.7610 H       106   G    0.0000
   3431 H5'        34.8000  -28.6090   19.8220 H       106   G    0.0000
   3432 H5''       33.0640  -28.3550   19.5610 H       106   G    0.0000
   3433 P          37.5160  -31.4460   19.0990 P.3     107   A    0.0000
   3434 C5'        37.1760  -34.0250   19.4040 C.3     107   A    0.0000
   3435 O5'        37.5740  -32.9470   18.5720 O.3     107   A    0.0000
   3436 C4'        37.1500  -35.3260   18.6440 C.3     107   A    0.0000
   3437 O4'        36.0600  -35.3170   17.6890 O.3     107   A    0.0000
   3438 C3'        38.3750  -35.6270   17.7990 C.3     107   A    0.0000
   3439 O3'        39.4570  -36.1410   18.5540 O.3     107   A    0.0000
   3440 C2'        37.8310  -36.6050   16.7660 C.3     107   A    0.0000
   3441 O2'        37.7060  -37.9040   17.3240 O.3     107   A    0.0000
   3442 C1'        36.4290  -36.0450   16.5350 C.3     107   A    0.0000
   3443 N1         35.9390  -35.7160   11.4110 N.ar    107   A    0.0000
   3444 C2         35.9550  -36.7550   12.2610 C.ar    107   A    0.0000
   3445 N3         36.0850  -36.7700   13.5890 N.ar    107   A    0.0000
   3446 C4         36.2180  -35.5200   14.0620 C.ar    107   A    0.0000
   3447 C5         36.2260  -34.3490   13.3190 C.ar    107   A    0.0000
   3448 C6         36.0740  -34.4690   11.9200 C.ar    107   A    0.0000
   3449 N6         36.0650  -33.4290   11.0760 N.pl3   107   A    0.0000
   3450 N7         36.3860  -33.2510   14.1530 N.ar    107   A    0.0000
   3451 C8         36.4710  -33.7710   15.3550 C.ar    107   A    0.0000
   3452 N9         36.3800  -35.1400   15.3710 N.ar    107   A    0.0000
   3453 OP1        37.8530  -30.5130   17.9950 O.co2   107   A    0.0000
   3454 OP2        38.2550  -31.3320   20.3770 O.co2   107   A    0.0000
   3455 HO2'       37.2220  -38.4690   16.7170 H       107   A    0.0000
   3456 H2         35.8460  -37.7260   11.8010 H       107   A    0.0000
   3457 H8         36.6010  -33.1770   16.2480 H       107   A    0.0000
   3458 H1'        35.7290  -36.8680   16.3850 H       107   A    0.0000
   3459 H2'        38.4260  -36.6080   15.8530 H       107   A    0.0000
   3460 H3'        38.6930  -34.7150   17.2940 H       107   A    0.0000
   3461 H4'        36.9970  -36.1440   19.3480 H       107   A    0.0000
   3462 H5'        37.8790  -34.1120   20.2320 H       107   A    0.0000
   3463 H61        35.1520  -33.4480   10.6450 H       107   A    0.0000
   3464 H62        36.0910  -32.5990   11.6500 H       107   A    0.0000
   3465 H5''       36.1810  -33.8220   19.8000 H       107   A    0.0000
   3466 P          40.9680  -35.8940   18.0740 P.3     108   U    0.0000
   3467 C5'        41.0760  -38.2450   16.9260 C.3     108   U    0.0000
   3468 O5'        41.0900  -36.8330   16.7930 O.3     108   U    0.0000
   3469 C4'        41.1790  -38.9320   15.5860 C.3     108   U    0.0000
   3470 O4'        39.9720  -38.6980   14.8180 O.3     108   U    0.0000
   3471 C3'        42.2940  -38.4550   14.6690 C.3     108   U    0.0000
   3472 O3'        43.5600  -39.0010   15.0000 O.3     108   U    0.0000
   3473 C2'        41.7900  -38.8760   13.2940 C.3     108   U    0.0000
   3474 O2'        42.0160  -40.2620   13.0800 O.3     108   U    0.0000
   3475 C1'        40.2850  -38.6510   13.4410 C.3     108   U    0.0000
   3476 N1         39.8630  -37.3410   12.9000 N.am    108   U    0.0000
   3477 C2         39.3750  -37.3300   11.6070 C.2     108   U    0.0000
   3478 O2         39.2910  -38.3410   10.9280 O.2     108   U    0.0000
   3479 N3         38.9890  -36.0990   11.1350 N.am    108   U    0.0000
   3480 C4         39.0440  -34.8990   11.8160 C.2     108   U    0.0000
   3481 O4         38.6620  -33.8700   11.2530 O.2     108   U    0.0000
   3482 C5         39.5620  -34.9940   13.1500 C.2     108   U    0.0000
   3483 C6         39.9450  -36.1820   13.6360 C.2     108   U    0.0000
   3484 OP1        41.8530  -36.3910   19.1500 O.co2   108   U    0.0000
   3485 OP2        41.0720  -34.4700   17.6670 O.co2   108   U    0.0000
   3486 HO2'       42.4030  -40.3920   12.2110 H       108   U    0.0000
   3487 H3         38.6280  -36.0680   10.1930 H       108   U    0.0000
   3488 H5         39.6420  -34.1080   13.7630 H       108   U    0.0000
   3489 H6         40.3340  -36.2320   14.6430 H       108   U    0.0000
   3490 H1'        39.7490  -39.4460   12.9220 H       108   U    0.0000
   3491 H2'        42.2180  -38.2660   12.4990 H       108   U    0.0000
   3492 H3'        42.3510  -37.3670   14.7120 H       108   U    0.0000
   3493 H4'        41.2910  -40.0040   15.7470 H       108   U    0.0000
   3494 H5'        41.9200  -38.5500   17.5450 H       108   U    0.0000
   3495 H5''       40.1490  -38.5480   17.4130 H       108   U    0.0000
   3496 P          44.9080  -38.2710   14.5200 P.3     109   U    0.0000
   3497 C5'        44.9410  -39.7040   12.3260 C.3     109   U    0.0000
   3498 O5'        44.8530  -38.4250   12.9350 O.3     109   U    0.0000
   3499 C4'        44.7150  -39.6260   10.8360 C.3     109   U    0.0000
   3500 O4'        43.4090  -39.0570   10.5650 O.3     109   U    0.0000
   3501 C3'        45.6720  -38.7350   10.0610 C.3     109   U    0.0000
   3502 O3'        46.9140  -39.3600    9.7910 O.3     109   U    0.0000
   3503 C2'        44.8700  -38.3990    8.8090 C.3     109   U    0.0000
   3504 O2'        44.9090  -39.4770    7.8840 O.3     109   U    0.0000
   3505 C1'        43.4540  -38.3000    9.3720 C.3     109   U    0.0000
   3506 N1         43.0730  -36.9040    9.6810 N.am    109   U    0.0000
   3507 C2         42.7150  -36.0990    8.6150 C.2     109   U    0.0000
   3508 O2         42.7180  -36.4980    7.4600 O.2     109   U    0.0000
   3509 N3         42.3630  -34.8120    8.9490 N.am    109   U    0.0000
   3510 C4         42.3310  -34.2610   10.2170 C.2     109   U    0.0000
   3511 O4         41.9940  -33.0830   10.3600 O.2     109   U    0.0000
   3512 C5         42.7110  -35.1620   11.2640 C.2     109   U    0.0000
   3513 C6         43.0590  -36.4210   10.9690 C.2     109   U    0.0000
   3514 OP1        46.0440  -39.0510   15.0630 O.co2   109   U    0.0000
   3515 OP2        44.7860  -36.8400   14.8910 O.co2   109   U    0.0000
   3516 HO2'       45.0360  -39.1320    6.9970 H       109   U    0.0000
   3517 H3         42.1000  -34.2040    8.1870 H       109   U    0.0000
   3518 H5         42.7170  -34.8260   12.2910 H       109   U    0.0000
   3519 H6         43.3390  -37.0840   11.7740 H       109   U    0.0000
   3520 H1'        42.7480  -38.7160    8.6520 H       109   U    0.0000
   3521 H2'        45.1960  -37.4630    8.3560 H       109   U    0.0000
   3522 H3'        45.8480  -37.8210   10.6290 H       109   U    0.0000
   3523 H4'        44.7540  -40.6320   10.4200 H       109   U    0.0000
   3524 H5'        45.9320  -40.1170   12.5120 H       109   U    0.0000
   3525 H5''       44.1920  -40.3620   12.7660 H       109   U    0.0000
   3526 P          48.2370  -38.4750    9.5800 P.3     110   C    0.0000
   3527 C5'        47.8260  -38.4500    6.9920 C.3     110   C    0.0000
   3528 O5'        47.9440  -37.7250    8.2070 O.3     110   C    0.0000
   3529 C4'        47.6250  -37.5280    5.8150 C.3     110   C    0.0000
   3530 O4'        46.2930  -36.9530    5.8610 O.3     110   C    0.0000
   3531 C3'        48.5440  -36.3190    5.7520 C.3     110   C    0.0000
   3532 O3'        49.8260  -36.6250    5.2330 O.3     110   C    0.0000
   3533 C2'        47.7500  -35.3480    4.8890 C.3     110   C    0.0000
   3534 O2'        47.8540  -35.6940    3.5160 O.3     110   C    0.0000
   3535 C1'        46.3220  -35.6340    5.3520 C.3     110   C    0.0000
   3536 N1         45.8850  -34.7050    6.4190 N.am    110   C    0.0000
   3537 C2         45.5850  -33.3780    6.0800 C.2     110   C    0.0000
   3538 O2         45.7000  -33.0140    4.8960 O.2     110   C    0.0000
   3539 N3         45.1840  -32.5240    7.0530 N.2     110   C    0.0000
   3540 C4         45.0740  -32.9470    8.3170 C.2     110   C    0.0000
   3541 N4         44.6730  -32.0640    9.2400 N.pl3   110   C    0.0000
   3542 C5         45.3720  -34.2950    8.6880 C.2     110   C    0.0000
   3543 C6         45.7670  -35.1300    7.7170 C.2     110   C    0.0000
   3544 OP1        48.2880  -37.4940   10.6910 O.co2   110   C    0.0000
   3545 OP2        49.3690  -39.4150    9.4090 O.co2   110   C    0.0000
   3546 HO2'       47.2320  -35.1690    3.0060 H       110   C    0.0000
   3547 H5         45.2810  -34.6270    9.7120 H       110   C    0.0000
   3548 H6         45.9960  -36.1570    7.9620 H       110   C    0.0000
   3549 H1'        45.6420  -35.5570    4.5030 H       110   C    0.0000
   3550 H2'        48.0380  -34.3120    5.0710 H       110   C    0.0000
   3551 H3'        48.6540  -35.9010    6.7520 H       110   C    0.0000
   3552 H4'        47.7310  -38.1010    4.8950 H       110   C    0.0000
   3553 H41        44.4640  -31.1130    8.9710 H       110   C    0.0000
   3554 H5'        46.9730  -39.1240    7.0630 H       110   C    0.0000
   3555 H42        44.5790  -32.3490   10.2040 H       110   C    0.0000
   3556 H5''       48.7320  -39.0350    6.8360 H       110   C    0.0000
   3557 P          51.1220  -35.8410    5.7700 P.3     111   G    0.0000
   3558 C5'        50.8540  -34.1570    3.7760 C.3     111   G    0.0000
   3559 O5'        50.9170  -34.3750    5.1790 O.3     111   G    0.0000
   3560 C4'        50.3910  -32.7580    3.4490 C.3     111   G    0.0000
   3561 O4'        49.0480  -32.5490    3.9560 O.3     111   G    0.0000
   3562 C3'        51.1930  -31.6260    4.0650 C.3     111   G    0.0000
   3563 O3'        52.3940  -31.3530    3.3630 O.3     111   G    0.0000
   3564 C2'        50.1990  -30.4700    4.0500 C.3     111   G    0.0000
   3565 O2'        50.1150  -29.8950    2.7550 O.3     111   G    0.0000
   3566 C1'        48.8850  -31.1970    4.3340 C.3     111   G    0.0000
   3567 N1         46.4690  -28.5630    7.9680 N.am    111   G    0.0000
   3568 C2         46.6300  -28.2630    6.6370 C.2     111   G    0.0000
   3569 N2         46.0650  -27.1150    6.2230 N.pl3   111   G    0.0000
   3570 N3         47.2900  -29.0350    5.7840 N.2     111   G    0.0000
   3571 C4         47.7810  -30.1480    6.3750 C.ar    111   G    0.0000
   3572 C5         47.6780  -30.5360    7.6950 C.ar    111   G    0.0000
   3573 C6         46.9710  -29.6990    8.5990 C.2     111   G    0.0000
   3574 O6         46.7690  -29.8730    9.8090 O.2     111   G    0.0000
   3575 N7         48.3250  -31.7490    7.9070 N.ar    111   G    0.0000
   3576 C8         48.8020  -32.0710    6.7350 C.ar    111   G    0.0000
   3577 N9         48.5140  -31.1430    5.7630 N.ar    111   G    0.0000
   3578 OP1        52.3050  -36.4760    5.1440 O.co2   111   G    0.0000
   3579 OP2        51.0300  -35.8050    7.2490 O.co2   111   G    0.0000
   3580 HO2'       50.9330  -29.4320    2.5560 H       111   G    0.0000
   3581 HO3'       52.8590  -30.6320    3.7940 H       111   G    0.0000
   3582 H1         45.9450  -27.9100    8.5330 H       111   G    0.0000
   3583 H8         49.3650  -32.9740    6.5490 H       111   G    0.0000
   3584 H1'        48.0900  -30.7490    3.7390 H       111   G    0.0000
   3585 H2'        50.4270  -29.7260    4.8130 H       111   G    0.0000
   3586 H21        45.5620  -26.5340    6.8780 H       111   G    0.0000
   3587 H3'        51.4320  -31.8780    5.0980 H       111   G    0.0000
   3588 H22        46.1430  -26.8340    5.2560 H       111   G    0.0000
   3589 H4'        50.3810  -32.6350    2.3660 H       111   G    0.0000
   3590 H5'        51.8460  -34.3100    3.3510 H       111   G    0.0000
   3591 H5''       50.1620  -34.8750    3.3350 H       111   G    0.0000
@<TRIPOS>BOND
     1    1    4 1
     2    1   13 1
     3    1   17 1
     4    1   20 1
     5    2   14 1
     6    2   18 1
     7    2   20 1
     8    2   21 1
     9    3    4 1
    10    3    5 1
    11    3   38 1
    12    3   39 1
    13    5    6 1
    14    5    7 1
    15    5   37 1
    16    6   11 1
    17    7    8 1
    18    7    9 1
    19    7   36 1
    20    9   10 1
    21    9   11 1
    22    9   35 1
    23   10   31 1
    24   11   28 1
    25   11   34 1
    26   12   15 ar
    27   12   24 ar
    28   15   16 1
    29   15   19 ar
    30   16   29 1
    31   16   30 1
    32   19   22 ar
    33   22   23 ar
    34   22   28 ar
    35   23   24 ar
    36   23   26 ar
    37   24   25 1
    38   25   32 1
    39   26   27 ar
    40   27   28 ar
    41   27   33 1
    42   40   61 1
    43   40   62 1
    44   40   42 1
    45   41   72 1
    46   41   42 1
    47   41   73 1
    48   41   43 1
    49   43   45 1
    50   43   71 1
    51   43   44 1
    52   44   49 1
    53   45   69 1
    54   45   47 1
    55   45   46 1
    56   47   49 1
    57   47   67 1
    58   47   48 1
    59   48   63 1
    60   49   66 1
    61   49   60 1
    62   50   51 1
    63   50   56 am
    64   50   64 1
    65   51   52 2
    66   51   53 2
    67   52   68 1
    68   52   70 1
    69   53   54 1
    70   54   60 ar
    71   54   55 ar
    72   55   58 ar
    73   55   56 1
    74   56   57 2
    75   58   59 ar
    76   59   60 ar
    77   59   65 1
    78   40    8 1
    79   74   95 1
    80   74   76 1
    81   74   94 1
    82   75   76 1
    83   75  103 1
    84   75  106 1
    85   75   77 1
    86   77   79 1
    87   77  102 1
    88   77   78 1
    89   78   83 1
    90   79  101 1
    91   79   81 1
    92   79   80 1
    93   81  100 1
    94   81   82 1
    95   81   83 1
    96   82   96 1
    97   83   99 1
    98   83   93 1
    99   84   89 ar
   100   84   85 ar
   101   85   97 1
   102   85   86 ar
   103   86   87 ar
   104   87   93 ar
   105   87   88 ar
   106   88   91 ar
   107   88   89 ar
   108   89   90 1
   109   90  104 1
   110   90  105 1
   111   91   92 ar
   112   92   93 ar
   113   92   98 1
   114   46   74 1
   115  107  125 1
   116  107  126 1
   117  107  109 1
   118  108  135 1
   119  108  136 1
   120  108  110 1
   121  108  109 1
   122  110  134 1
   123  110  111 1
   124  110  112 1
   125  111  116 1
   126  112  114 1
   127  112  133 1
   128  112  113 1
   129  114  132 1
   130  114  115 1
   131  114  116 1
   132  115  127 1
   133  116  131 1
   134  116  117 1
   135  117  124 1
   136  117  118 am
   137  118  119 2
   138  118  120 am
   139  120  121 am
   140  120  128 1
   141  121  123 1
   142  121  122 2
   143  123  124 2
   144  123  129 1
   145  124  130 1
   146   80  107 1
   147  137  155 1
   148  137  156 1
   149  137  139 1
   150  138  139 1
   151  138  165 1
   152  138  167 1
   153  138  140 1
   154  140  142 1
   155  140  163 1
   156  140  141 1
   157  141  146 1
   158  142  162 1
   159  142  144 1
   160  142  143 1
   161  144  161 1
   162  144  145 1
   163  144  146 1
   164  145  157 1
   165  146  160 1
   166  146  147 1
   167  147  148 am
   168  147  154 1
   169  148  150 1
   170  148  149 2
   171  150  151 2
   172  151  153 2
   173  151  152 2
   174  152  164 1
   175  152  166 1
   176  153  154 2
   177  153  158 1
   178  154  159 1
   179  113  137 1
   180  168  186 1
   181  168  187 1
   182  168  170 1
   183  169  196 1
   184  169  197 1
   185  169  171 1
   186  169  170 1
   187  171  195 1
   188  171  172 1
   189  171  173 1
   190  172  177 1
   191  173  175 1
   192  173  194 1
   193  173  174 1
   194  175  193 1
   195  175  176 1
   196  175  177 1
   197  176  188 1
   198  177  192 1
   199  177  178 1
   200  178  185 1
   201  178  179 am
   202  179  180 2
   203  179  181 am
   204  181  182 am
   205  181  189 1
   206  182  184 1
   207  182  183 2
   208  184  185 2
   209  184  190 1
   210  185  191 1
   211  143  168 1
   212  198  216 1
   213  198  217 1
   214  198  200 1
   215  199  226 1
   216  199  227 1
   217  199  201 1
   218  199  200 1
   219  201  225 1
   220  201  202 1
   221  201  203 1
   222  202  207 1
   223  203  205 1
   224  203  224 1
   225  203  204 1
   226  205  223 1
   227  205  206 1
   228  205  207 1
   229  206  218 1
   230  207  222 1
   231  207  208 1
   232  208  215 1
   233  208  209 am
   234  209  210 2
   235  209  211 am
   236  211  212 am
   237  211  219 1
   238  212  214 1
   239  212  213 2
   240  214  215 2
   241  214  220 1
   242  215  221 1
   243  174  198 1
   244  228  246 1
   245  228  247 1
   246  228  230 1
   247  229  230 1
   248  229  256 1
   249  229  258 1
   250  229  231 1
   251  231  233 1
   252  231  254 1
   253  231  232 1
   254  232  237 1
   255  233  253 1
   256  233  235 1
   257  233  234 1
   258  235  252 1
   259  235  236 1
   260  235  237 1
   261  236  248 1
   262  237  251 1
   263  237  238 1
   264  238  239 am
   265  238  245 1
   266  239  241 1
   267  239  240 2
   268  241  242 2
   269  242  244 2
   270  242  243 2
   271  243  255 1
   272  243  257 1
   273  244  245 2
   274  244  249 1
   275  245  250 1
   276  204  228 1
   277  259  280 1
   278  259  281 1
   279  259  261 1
   280  260  291 1
   281  260  261 1
   282  260  292 1
   283  260  262 1
   284  262  264 1
   285  262  290 1
   286  262  263 1
   287  263  268 1
   288  264  288 1
   289  264  266 1
   290  264  265 1
   291  266  268 1
   292  266  286 1
   293  266  267 1
   294  267  282 1
   295  268  285 1
   296  268  279 1
   297  269  270 1
   298  269  275 am
   299  269  283 1
   300  270  271 2
   301  270  272 2
   302  271  287 1
   303  271  289 1
   304  272  273 1
   305  273  279 ar
   306  273  274 ar
   307  274  277 ar
   308  274  275 1
   309  275  276 2
   310  277  278 ar
   311  278  279 ar
   312  278  284 1
   313  234  259 1
   314  293  314 1
   315  293  315 1
   316  293  295 1
   317  294  325 1
   318  294  295 1
   319  294  326 1
   320  294  296 1
   321  296  298 1
   322  296  324 1
   323  296  297 1
   324  297  302 1
   325  298  322 1
   326  298  300 1
   327  298  299 1
   328  300  302 1
   329  300  320 1
   330  300  301 1
   331  301  316 1
   332  302  319 1
   333  302  313 1
   334  303  304 1
   335  303  309 am
   336  303  317 1
   337  304  305 2
   338  304  306 2
   339  305  321 1
   340  305  323 1
   341  306  307 1
   342  307  313 ar
   343  307  308 ar
   344  308  311 ar
   345  308  309 1
   346  309  310 2
   347  311  312 ar
   348  312  313 ar
   349  312  318 1
   350  265  293 1
   351  327  348 1
   352  327  349 1
   353  327  329 1
   354  328  359 1
   355  328  329 1
   356  328  360 1
   357  328  330 1
   358  330  332 1
   359  330  358 1
   360  330  331 1
   361  331  336 1
   362  332  356 1
   363  332  334 1
   364  332  333 1
   365  334  336 1
   366  334  354 1
   367  334  335 1
   368  335  350 1
   369  336  353 1
   370  336  347 1
   371  337  338 1
   372  337  343 am
   373  337  351 1
   374  338  339 2
   375  338  340 2
   376  339  355 1
   377  339  357 1
   378  340  341 1
   379  341  347 ar
   380  341  342 ar
   381  342  345 ar
   382  342  343 1
   383  343  344 2
   384  345  346 ar
   385  346  347 ar
   386  346  352 1
   387  299  327 1
   388  361  382 1
   389  361  383 1
   390  361  363 1
   391  362  393 1
   392  362  363 1
   393  362  394 1
   394  362  364 1
   395  364  366 1
   396  364  392 1
   397  364  365 1
   398  365  370 1
   399  366  390 1
   400  366  368 1
   401  366  367 1
   402  368  370 1
   403  368  388 1
   404  368  369 1
   405  369  384 1
   406  370  387 1
   407  370  381 1
   408  371  372 1
   409  371  377 am
   410  371  385 1
   411  372  373 2
   412  372  374 2
   413  373  389 1
   414  373  391 1
   415  374  375 1
   416  375  381 ar
   417  375  376 ar
   418  376  379 ar
   419  376  377 1
   420  377  378 2
   421  379  380 ar
   422  380  381 ar
   423  380  386 1
   424  333  361 1
   425  395  413 1
   426  395  414 1
   427  395  397 1
   428  396  397 1
   429  396  423 1
   430  396  425 1
   431  396  398 1
   432  398  400 1
   433  398  421 1
   434  398  399 1
   435  399  404 1
   436  400  420 1
   437  400  402 1
   438  400  401 1
   439  402  419 1
   440  402  403 1
   441  402  404 1
   442  403  415 1
   443  404  418 1
   444  404  405 1
   445  405  406 am
   446  405  412 1
   447  406  408 1
   448  406  407 2
   449  408  409 2
   450  409  411 2
   451  409  410 2
   452  410  422 1
   453  410  424 1
   454  411  412 2
   455  411  416 1
   456  412  417 1
   457  367  395 1
   458  426  447 1
   459  426  428 1
   460  426  446 1
   461  427  428 1
   462  427  455 1
   463  427  458 1
   464  427  429 1
   465  429  431 1
   466  429  454 1
   467  429  430 1
   468  430  435 1
   469  431  453 1
   470  431  433 1
   471  431  432 1
   472  433  452 1
   473  433  434 1
   474  433  435 1
   475  434  448 1
   476  435  451 1
   477  435  445 1
   478  436  441 ar
   479  436  437 ar
   480  437  449 1
   481  437  438 ar
   482  438  439 ar
   483  439  445 ar
   484  439  440 ar
   485  440  443 ar
   486  440  441 ar
   487  441  442 1
   488  442  456 1
   489  442  457 1
   490  443  444 ar
   491  444  445 ar
   492  444  450 1
   493  401  426 1
   494  459  480 1
   495  459  481 1
   496  459  461 1
   497  460  491 1
   498  460  461 1
   499  460  492 1
   500  460  462 1
   501  462  464 1
   502  462  490 1
   503  462  463 1
   504  463  468 1
   505  464  488 1
   506  464  466 1
   507  464  465 1
   508  466  468 1
   509  466  486 1
   510  466  467 1
   511  467  482 1
   512  468  485 1
   513  468  479 1
   514  469  470 1
   515  469  475 am
   516  469  483 1
   517  470  471 2
   518  470  472 2
   519  471  487 1
   520  471  489 1
   521  472  473 1
   522  473  479 ar
   523  473  474 ar
   524  474  477 ar
   525  474  475 1
   526  475  476 2
   527  477  478 ar
   528  478  479 ar
   529  478  484 1
   530  432  459 1
   531  493  514 1
   532  493  515 1
   533  493  495 1
   534  494  525 1
   535  494  495 1
   536  494  526 1
   537  494  496 1
   538  496  498 1
   539  496  524 1
   540  496  497 1
   541  497  502 1
   542  498  522 1
   543  498  500 1
   544  498  499 1
   545  500  502 1
   546  500  520 1
   547  500  501 1
   548  501  516 1
   549  502  519 1
   550  502  513 1
   551  503  504 1
   552  503  509 am
   553  503  517 1
   554  504  505 2
   555  504  506 2
   556  505  521 1
   557  505  523 1
   558  506  507 1
   559  507  513 ar
   560  507  508 ar
   561  508  511 ar
   562  508  509 1
   563  509  510 2
   564  511  512 ar
   565  512  513 ar
   566  512  518 1
   567  465  493 1
   568  527  548 1
   569  527  549 1
   570  527  529 1
   571  528  559 1
   572  528  529 1
   573  528  560 1
   574  528  530 1
   575  530  532 1
   576  530  558 1
   577  530  531 1
   578  531  536 1
   579  532  556 1
   580  532  534 1
   581  532  533 1
   582  534  536 1
   583  534  554 1
   584  534  535 1
   585  535  550 1
   586  536  553 1
   587  536  547 1
   588  537  538 1
   589  537  543 am
   590  537  551 1
   591  538  539 2
   592  538  540 2
   593  539  555 1
   594  539  557 1
   595  540  541 1
   596  541  547 ar
   597  541  542 ar
   598  542  545 ar
   599  542  543 1
   600  543  544 2
   601  545  546 ar
   602  546  547 ar
   603  546  552 1
   604  499  527 1
   605  561  579 1
   606  561  580 1
   607  561  563 1
   608  562  589 1
   609  562  590 1
   610  562  564 1
   611  562  563 1
   612  564  588 1
   613  564  565 1
   614  564  566 1
   615  565  570 1
   616  566  568 1
   617  566  587 1
   618  566  567 1
   619  568  586 1
   620  568  569 1
   621  568  570 1
   622  569  581 1
   623  570  585 1
   624  570  571 1
   625  571  578 1
   626  571  572 am
   627  572  573 2
   628  572  574 am
   629  574  575 am
   630  574  582 1
   631  575  577 1
   632  575  576 2
   633  577  578 2
   634  577  583 1
   635  578  584 1
   636  533  561 1
   637  591  612 1
   638  591  613 1
   639  591  593 1
   640  592  623 1
   641  592  593 1
   642  592  624 1
   643  592  594 1
   644  594  596 1
   645  594  622 1
   646  594  595 1
   647  595  600 1
   648  596  620 1
   649  596  598 1
   650  596  597 1
   651  598  600 1
   652  598  618 1
   653  598  599 1
   654  599  614 1
   655  600  617 1
   656  600  611 1
   657  601  602 1
   658  601  607 am
   659  601  615 1
   660  602  603 2
   661  602  604 2
   662  603  619 1
   663  603  621 1
   664  604  605 1
   665  605  611 ar
   666  605  606 ar
   667  606  609 ar
   668  606  607 1
   669  607  608 2
   670  609  610 ar
   671  610  611 ar
   672  610  616 1
   673  567  591 1
   674  625  646 1
   675  625  627 1
   676  625  645 1
   677  626  627 1
   678  626  654 1
   679  626  657 1
   680  626  628 1
   681  628  630 1
   682  628  653 1
   683  628  629 1
   684  629  634 1
   685  630  652 1
   686  630  632 1
   687  630  631 1
   688  632  651 1
   689  632  633 1
   690  632  634 1
   691  633  647 1
   692  634  650 1
   693  634  644 1
   694  635  640 ar
   695  635  636 ar
   696  636  648 1
   697  636  637 ar
   698  637  638 ar
   699  638  644 ar
   700  638  639 ar
   701  639  642 ar
   702  639  640 ar
   703  640  641 1
   704  641  655 1
   705  641  656 1
   706  642  643 ar
   707  643  644 ar
   708  643  649 1
   709  597  625 1
   710  658  679 1
   711  658  660 1
   712  658  678 1
   713  659  660 1
   714  659  687 1
   715  659  690 1
   716  659  661 1
   717  661  663 1
   718  661  686 1
   719  661  662 1
   720  662  667 1
   721  663  685 1
   722  663  665 1
   723  663  664 1
   724  665  684 1
   725  665  666 1
   726  665  667 1
   727  666  680 1
   728  667  683 1
   729  667  677 1
   730  668  673 ar
   731  668  669 ar
   732  669  681 1
   733  669  670 ar
   734  670  671 ar
   735  671  677 ar
   736  671  672 ar
   737  672  675 ar
   738  672  673 ar
   739  673  674 1
   740  674  688 1
   741  674  689 1
   742  675  676 ar
   743  676  677 ar
   744  676  682 1
   745  631  658 1
   746  691  712 1
   747  691  693 1
   748  691  711 1
   749  692  693 1
   750  692  720 1
   751  692  723 1
   752  692  694 1
   753  694  696 1
   754  694  719 1
   755  694  695 1
   756  695  700 1
   757  696  718 1
   758  696  698 1
   759  696  697 1
   760  698  717 1
   761  698  699 1
   762  698  700 1
   763  699  713 1
   764  700  716 1
   765  700  710 1
   766  701  706 ar
   767  701  702 ar
   768  702  714 1
   769  702  703 ar
   770  703  704 ar
   771  704  710 ar
   772  704  705 ar
   773  705  708 ar
   774  705  706 ar
   775  706  707 1
   776  707  721 1
   777  707  722 1
   778  708  709 ar
   779  709  710 ar
   780  709  715 1
   781  664  691 1
   782  724  742 1
   783  724  743 1
   784  724  726 1
   785  725  752 1
   786  725  753 1
   787  725  727 1
   788  725  726 1
   789  727  751 1
   790  727  728 1
   791  727  729 1
   792  728  733 1
   793  729  731 1
   794  729  750 1
   795  729  730 1
   796  731  749 1
   797  731  732 1
   798  731  733 1
   799  732  744 1
   800  733  748 1
   801  733  734 1
   802  734  741 1
   803  734  735 am
   804  735  736 2
   805  735  737 am
   806  737  738 am
   807  737  745 1
   808  738  740 1
   809  738  739 2
   810  740  741 2
   811  740  746 1
   812  741  747 1
   813  697  724 1
   814  754  772 1
   815  754  773 1
   816  754  756 1
   817  755  782 1
   818  755  783 1
   819  755  757 1
   820  755  756 1
   821  757  781 1
   822  757  758 1
   823  757  759 1
   824  758  763 1
   825  759  761 1
   826  759  780 1
   827  759  760 1
   828  761  779 1
   829  761  762 1
   830  761  763 1
   831  762  774 1
   832  763  778 1
   833  763  764 1
   834  764  771 1
   835  764  765 am
   836  765  766 2
   837  765  767 am
   838  767  768 am
   839  767  775 1
   840  768  770 1
   841  768  769 2
   842  770  771 2
   843  770  776 1
   844  771  777 1
   845  730  754 1
   846  784  802 1
   847  784  803 1
   848  784  786 1
   849  785  786 1
   850  785  812 1
   851  785  814 1
   852  785  787 1
   853  787  789 1
   854  787  810 1
   855  787  788 1
   856  788  793 1
   857  789  809 1
   858  789  791 1
   859  789  790 1
   860  791  808 1
   861  791  792 1
   862  791  793 1
   863  792  804 1
   864  793  807 1
   865  793  794 1
   866  794  795 am
   867  794  801 1
   868  795  797 1
   869  795  796 2
   870  797  798 2
   871  798  800 2
   872  798  799 2
   873  799  811 1
   874  799  813 1
   875  800  801 2
   876  800  805 1
   877  801  806 1
   878  760  784 1
   879  815  833 1
   880  815  834 1
   881  815  817 1
   882  816  817 1
   883  816  843 1
   884  816  845 1
   885  816  818 1
   886  818  820 1
   887  818  841 1
   888  818  819 1
   889  819  824 1
   890  820  840 1
   891  820  822 1
   892  820  821 1
   893  822  839 1
   894  822  823 1
   895  822  824 1
   896  823  835 1
   897  824  838 1
   898  824  825 1
   899  825  826 am
   900  825  832 1
   901  826  828 1
   902  826  827 2
   903  828  829 2
   904  829  831 2
   905  829  830 2
   906  830  842 1
   907  830  844 1
   908  831  832 2
   909  831  836 1
   910  832  837 1
   911  790  815 1
   912  846  864 1
   913  846  865 1
   914  846  848 1
   915  847  848 1
   916  847  874 1
   917  847  876 1
   918  847  849 1
   919  849  851 1
   920  849  872 1
   921  849  850 1
   922  850  855 1
   923  851  871 1
   924  851  853 1
   925  851  852 1
   926  853  870 1
   927  853  854 1
   928  853  855 1
   929  854  866 1
   930  855  869 1
   931  855  856 1
   932  856  857 am
   933  856  863 1
   934  857  859 1
   935  857  858 2
   936  859  860 2
   937  860  862 2
   938  860  861 2
   939  861  873 1
   940  861  875 1
   941  862  863 2
   942  862  867 1
   943  863  868 1
   944  821  846 1
   945  877  898 1
   946  877  899 1
   947  877  879 1
   948  878  909 1
   949  878  879 1
   950  878  910 1
   951  878  880 1
   952  880  882 1
   953  880  908 1
   954  880  881 1
   955  881  886 1
   956  882  906 1
   957  882  884 1
   958  882  883 1
   959  884  886 1
   960  884  904 1
   961  884  885 1
   962  885  900 1
   963  886  903 1
   964  886  897 1
   965  887  888 1
   966  887  893 am
   967  887  901 1
   968  888  889 2
   969  888  890 2
   970  889  905 1
   971  889  907 1
   972  890  891 1
   973  891  897 ar
   974  891  892 ar
   975  892  895 ar
   976  892  893 1
   977  893  894 2
   978  895  896 ar
   979  896  897 ar
   980  896  902 1
   981  852  877 1
   982  911  932 1
   983  911  913 1
   984  911  931 1
   985  912  913 1
   986  912  940 1
   987  912  943 1
   988  912  914 1
   989  914  916 1
   990  914  939 1
   991  914  915 1
   992  915  920 1
   993  916  938 1
   994  916  918 1
   995  916  917 1
   996  918  937 1
   997  918  919 1
   998  918  920 1
   999  919  933 1
  1000  920  936 1
  1001  920  930 1
  1002  921  926 ar
  1003  921  922 ar
  1004  922  934 1
  1005  922  923 ar
  1006  923  924 ar
  1007  924  930 ar
  1008  924  925 ar
  1009  925  928 ar
  1010  925  926 ar
  1011  926  927 1
  1012  927  941 1
  1013  927  942 1
  1014  928  929 ar
  1015  929  930 ar
  1016  929  935 1
  1017  883  911 1
  1018  944  962 1
  1019  944  963 1
  1020  944  946 1
  1021  945  946 1
  1022  945  972 1
  1023  945  974 1
  1024  945  947 1
  1025  947  949 1
  1026  947  970 1
  1027  947  948 1
  1028  948  953 1
  1029  949  969 1
  1030  949  951 1
  1031  949  950 1
  1032  951  968 1
  1033  951  952 1
  1034  951  953 1
  1035  952  964 1
  1036  953  967 1
  1037  953  954 1
  1038  954  955 am
  1039  954  961 1
  1040  955  957 1
  1041  955  956 2
  1042  957  958 2
  1043  958  960 2
  1044  958  959 2
  1045  959  971 1
  1046  959  973 1
  1047  960  961 2
  1048  960  965 1
  1049  961  966 1
  1050  917  944 1
  1051  975  993 1
  1052  975  994 1
  1053  975  977 1
  1054  976  977 1
  1055  976 1003 1
  1056  976 1005 1
  1057  976  978 1
  1058  978  980 1
  1059  978 1001 1
  1060  978  979 1
  1061  979  984 1
  1062  980 1000 1
  1063  980  982 1
  1064  980  981 1
  1065  982  999 1
  1066  982  983 1
  1067  982  984 1
  1068  983  995 1
  1069  984  998 1
  1070  984  985 1
  1071  985  986 am
  1072  985  992 1
  1073  986  988 1
  1074  986  987 2
  1075  988  989 2
  1076  989  991 2
  1077  989  990 2
  1078  990 1002 1
  1079  990 1004 1
  1080  991  992 2
  1081  991  996 1
  1082  992  997 1
  1083  950  975 1
  1084 1006 1027 1
  1085 1006 1028 1
  1086 1006 1008 1
  1087 1007 1038 1
  1088 1007 1008 1
  1089 1007 1039 1
  1090 1007 1009 1
  1091 1009 1011 1
  1092 1009 1037 1
  1093 1009 1010 1
  1094 1010 1015 1
  1095 1011 1035 1
  1096 1011 1013 1
  1097 1011 1012 1
  1098 1013 1015 1
  1099 1013 1033 1
  1100 1013 1014 1
  1101 1014 1029 1
  1102 1015 1032 1
  1103 1015 1026 1
  1104 1016 1017 1
  1105 1016 1022 am
  1106 1016 1030 1
  1107 1017 1018 2
  1108 1017 1019 2
  1109 1018 1034 1
  1110 1018 1036 1
  1111 1019 1020 1
  1112 1020 1026 ar
  1113 1020 1021 ar
  1114 1021 1024 ar
  1115 1021 1022 1
  1116 1022 1023 2
  1117 1024 1025 ar
  1118 1025 1026 ar
  1119 1025 1031 1
  1120  981 1006 1
  1121 1040 1061 1
  1122 1040 1062 1
  1123 1040 1042 1
  1124 1041 1072 1
  1125 1041 1042 1
  1126 1041 1073 1
  1127 1041 1043 1
  1128 1043 1045 1
  1129 1043 1071 1
  1130 1043 1044 1
  1131 1044 1049 1
  1132 1045 1069 1
  1133 1045 1047 1
  1134 1045 1046 1
  1135 1047 1049 1
  1136 1047 1067 1
  1137 1047 1048 1
  1138 1048 1063 1
  1139 1049 1066 1
  1140 1049 1060 1
  1141 1050 1051 1
  1142 1050 1056 am
  1143 1050 1064 1
  1144 1051 1052 2
  1145 1051 1053 2
  1146 1052 1068 1
  1147 1052 1070 1
  1148 1053 1054 1
  1149 1054 1060 ar
  1150 1054 1055 ar
  1151 1055 1058 ar
  1152 1055 1056 1
  1153 1056 1057 2
  1154 1058 1059 ar
  1155 1059 1060 ar
  1156 1059 1065 1
  1157 1012 1040 1
  1158 1074 1092 1
  1159 1074 1093 1
  1160 1074 1076 1
  1161 1075 1102 1
  1162 1075 1103 1
  1163 1075 1077 1
  1164 1075 1076 1
  1165 1077 1101 1
  1166 1077 1078 1
  1167 1077 1079 1
  1168 1078 1083 1
  1169 1079 1081 1
  1170 1079 1100 1
  1171 1079 1080 1
  1172 1081 1099 1
  1173 1081 1082 1
  1174 1081 1083 1
  1175 1082 1094 1
  1176 1083 1098 1
  1177 1083 1084 1
  1178 1084 1091 1
  1179 1084 1085 am
  1180 1085 1086 2
  1181 1085 1087 am
  1182 1087 1088 am
  1183 1087 1095 1
  1184 1088 1090 1
  1185 1088 1089 2
  1186 1090 1091 2
  1187 1090 1096 1
  1188 1091 1097 1
  1189 1046 1074 1
  1190 1104 1125 1
  1191 1104 1126 1
  1192 1104 1106 1
  1193 1105 1136 1
  1194 1105 1106 1
  1195 1105 1137 1
  1196 1105 1107 1
  1197 1107 1109 1
  1198 1107 1135 1
  1199 1107 1108 1
  1200 1108 1113 1
  1201 1109 1133 1
  1202 1109 1111 1
  1203 1109 1110 1
  1204 1111 1113 1
  1205 1111 1131 1
  1206 1111 1112 1
  1207 1112 1127 1
  1208 1113 1130 1
  1209 1113 1124 1
  1210 1114 1115 1
  1211 1114 1120 am
  1212 1114 1128 1
  1213 1115 1116 2
  1214 1115 1117 2
  1215 1116 1132 1
  1216 1116 1134 1
  1217 1117 1118 1
  1218 1118 1124 ar
  1219 1118 1119 ar
  1220 1119 1122 ar
  1221 1119 1120 1
  1222 1120 1121 2
  1223 1122 1123 ar
  1224 1123 1124 ar
  1225 1123 1129 1
  1226 1080 1104 1
  1227 1138 1159 1
  1228 1138 1160 1
  1229 1138 1140 1
  1230 1139 1170 1
  1231 1139 1140 1
  1232 1139 1171 1
  1233 1139 1141 1
  1234 1141 1143 1
  1235 1141 1169 1
  1236 1141 1142 1
  1237 1142 1147 1
  1238 1143 1167 1
  1239 1143 1145 1
  1240 1143 1144 1
  1241 1145 1147 1
  1242 1145 1165 1
  1243 1145 1146 1
  1244 1146 1161 1
  1245 1147 1164 1
  1246 1147 1158 1
  1247 1148 1149 1
  1248 1148 1154 am
  1249 1148 1162 1
  1250 1149 1150 2
  1251 1149 1151 2
  1252 1150 1166 1
  1253 1150 1168 1
  1254 1151 1152 1
  1255 1152 1158 ar
  1256 1152 1153 ar
  1257 1153 1156 ar
  1258 1153 1154 1
  1259 1154 1155 2
  1260 1156 1157 ar
  1261 1157 1158 ar
  1262 1157 1163 1
  1263 1110 1138 1
  1264 1172 1190 1
  1265 1172 1191 1
  1266 1172 1174 1
  1267 1173 1200 1
  1268 1173 1201 1
  1269 1173 1175 1
  1270 1173 1174 1
  1271 1175 1199 1
  1272 1175 1176 1
  1273 1175 1177 1
  1274 1176 1181 1
  1275 1177 1179 1
  1276 1177 1198 1
  1277 1177 1178 1
  1278 1179 1197 1
  1279 1179 1180 1
  1280 1179 1181 1
  1281 1180 1192 1
  1282 1181 1196 1
  1283 1181 1182 1
  1284 1182 1189 1
  1285 1182 1183 am
  1286 1183 1184 2
  1287 1183 1185 am
  1288 1185 1186 am
  1289 1185 1193 1
  1290 1186 1188 1
  1291 1186 1187 2
  1292 1188 1189 2
  1293 1188 1194 1
  1294 1189 1195 1
  1295 1144 1172 1
  1296 1202 1223 1
  1297 1202 1204 1
  1298 1202 1222 1
  1299 1203 1204 1
  1300 1203 1231 1
  1301 1203 1234 1
  1302 1203 1205 1
  1303 1205 1207 1
  1304 1205 1230 1
  1305 1205 1206 1
  1306 1206 1211 1
  1307 1207 1229 1
  1308 1207 1209 1
  1309 1207 1208 1
  1310 1209 1228 1
  1311 1209 1210 1
  1312 1209 1211 1
  1313 1210 1224 1
  1314 1211 1227 1
  1315 1211 1221 1
  1316 1212 1217 ar
  1317 1212 1213 ar
  1318 1213 1225 1
  1319 1213 1214 ar
  1320 1214 1215 ar
  1321 1215 1221 ar
  1322 1215 1216 ar
  1323 1216 1219 ar
  1324 1216 1217 ar
  1325 1217 1218 1
  1326 1218 1232 1
  1327 1218 1233 1
  1328 1219 1220 ar
  1329 1220 1221 ar
  1330 1220 1226 1
  1331 1178 1202 1
  1332 1235 1253 1
  1333 1235 1254 1
  1334 1235 1237 1
  1335 1236 1263 1
  1336 1236 1264 1
  1337 1236 1238 1
  1338 1236 1237 1
  1339 1238 1262 1
  1340 1238 1239 1
  1341 1238 1240 1
  1342 1239 1244 1
  1343 1240 1242 1
  1344 1240 1261 1
  1345 1240 1241 1
  1346 1242 1260 1
  1347 1242 1243 1
  1348 1242 1244 1
  1349 1243 1255 1
  1350 1244 1259 1
  1351 1244 1245 1
  1352 1245 1252 1
  1353 1245 1246 am
  1354 1246 1247 2
  1355 1246 1248 am
  1356 1248 1249 am
  1357 1248 1256 1
  1358 1249 1251 1
  1359 1249 1250 2
  1360 1251 1252 2
  1361 1251 1257 1
  1362 1252 1258 1
  1363 1208 1235 1
  1364 1265 1286 1
  1365 1265 1267 1
  1366 1265 1285 1
  1367 1266 1267 1
  1368 1266 1294 1
  1369 1266 1297 1
  1370 1266 1268 1
  1371 1268 1270 1
  1372 1268 1293 1
  1373 1268 1269 1
  1374 1269 1274 1
  1375 1270 1292 1
  1376 1270 1272 1
  1377 1270 1271 1
  1378 1272 1291 1
  1379 1272 1273 1
  1380 1272 1274 1
  1381 1273 1287 1
  1382 1274 1290 1
  1383 1274 1284 1
  1384 1275 1280 ar
  1385 1275 1276 ar
  1386 1276 1288 1
  1387 1276 1277 ar
  1388 1277 1278 ar
  1389 1278 1284 ar
  1390 1278 1279 ar
  1391 1279 1282 ar
  1392 1279 1280 ar
  1393 1280 1281 1
  1394 1281 1295 1
  1395 1281 1296 1
  1396 1282 1283 ar
  1397 1283 1284 ar
  1398 1283 1289 1
  1399 1241 1265 1
  1400 1298 1319 1
  1401 1298 1320 1
  1402 1298 1300 1
  1403 1299 1330 1
  1404 1299 1300 1
  1405 1299 1331 1
  1406 1299 1301 1
  1407 1301 1303 1
  1408 1301 1329 1
  1409 1301 1302 1
  1410 1302 1307 1
  1411 1303 1327 1
  1412 1303 1305 1
  1413 1303 1304 1
  1414 1305 1307 1
  1415 1305 1325 1
  1416 1305 1306 1
  1417 1306 1321 1
  1418 1307 1324 1
  1419 1307 1318 1
  1420 1308 1309 1
  1421 1308 1314 am
  1422 1308 1322 1
  1423 1309 1310 2
  1424 1309 1311 2
  1425 1310 1326 1
  1426 1310 1328 1
  1427 1311 1312 1
  1428 1312 1318 ar
  1429 1312 1313 ar
  1430 1313 1316 ar
  1431 1313 1314 1
  1432 1314 1315 2
  1433 1316 1317 ar
  1434 1317 1318 ar
  1435 1317 1323 1
  1436 1271 1298 1
  1437 1332 1350 1
  1438 1332 1351 1
  1439 1332 1334 1
  1440 1333 1360 1
  1441 1333 1361 1
  1442 1333 1335 1
  1443 1333 1334 1
  1444 1335 1359 1
  1445 1335 1336 1
  1446 1335 1337 1
  1447 1336 1341 1
  1448 1337 1339 1
  1449 1337 1358 1
  1450 1337 1338 1
  1451 1339 1357 1
  1452 1339 1340 1
  1453 1339 1341 1
  1454 1340 1352 1
  1455 1341 1356 1
  1456 1341 1342 1
  1457 1342 1349 1
  1458 1342 1343 am
  1459 1343 1344 2
  1460 1343 1345 am
  1461 1345 1346 am
  1462 1345 1353 1
  1463 1346 1348 1
  1464 1346 1347 2
  1465 1348 1349 2
  1466 1348 1354 1
  1467 1349 1355 1
  1468 1304 1332 1
  1469 1362 1380 1
  1470 1362 1381 1
  1471 1362 1364 1
  1472 1363 1364 1
  1473 1363 1390 1
  1474 1363 1392 1
  1475 1363 1365 1
  1476 1365 1367 1
  1477 1365 1388 1
  1478 1365 1366 1
  1479 1366 1371 1
  1480 1367 1387 1
  1481 1367 1369 1
  1482 1367 1368 1
  1483 1369 1386 1
  1484 1369 1370 1
  1485 1369 1371 1
  1486 1370 1382 1
  1487 1371 1385 1
  1488 1371 1372 1
  1489 1372 1373 am
  1490 1372 1379 1
  1491 1373 1375 1
  1492 1373 1374 2
  1493 1375 1376 2
  1494 1376 1378 2
  1495 1376 1377 2
  1496 1377 1389 1
  1497 1377 1391 1
  1498 1378 1379 2
  1499 1378 1383 1
  1500 1379 1384 1
  1501 1338 1362 1
  1502 1393 1411 1
  1503 1393 1412 1
  1504 1393 1395 1
  1505 1394 1395 1
  1506 1394 1421 1
  1507 1394 1423 1
  1508 1394 1396 1
  1509 1396 1398 1
  1510 1396 1419 1
  1511 1396 1397 1
  1512 1397 1402 1
  1513 1398 1418 1
  1514 1398 1400 1
  1515 1398 1399 1
  1516 1400 1417 1
  1517 1400 1401 1
  1518 1400 1402 1
  1519 1401 1413 1
  1520 1402 1416 1
  1521 1402 1403 1
  1522 1403 1404 am
  1523 1403 1410 1
  1524 1404 1406 1
  1525 1404 1405 2
  1526 1406 1407 2
  1527 1407 1409 2
  1528 1407 1408 2
  1529 1408 1420 1
  1530 1408 1422 1
  1531 1409 1410 2
  1532 1409 1414 1
  1533 1410 1415 1
  1534 1368 1393 1
  1535 1424 1445 1
  1536 1424 1426 1
  1537 1424 1444 1
  1538 1425 1426 1
  1539 1425 1453 1
  1540 1425 1456 1
  1541 1425 1427 1
  1542 1427 1429 1
  1543 1427 1452 1
  1544 1427 1428 1
  1545 1428 1433 1
  1546 1429 1451 1
  1547 1429 1431 1
  1548 1429 1430 1
  1549 1431 1450 1
  1550 1431 1432 1
  1551 1431 1433 1
  1552 1432 1446 1
  1553 1433 1449 1
  1554 1433 1443 1
  1555 1434 1439 ar
  1556 1434 1435 ar
  1557 1435 1447 1
  1558 1435 1436 ar
  1559 1436 1437 ar
  1560 1437 1443 ar
  1561 1437 1438 ar
  1562 1438 1441 ar
  1563 1438 1439 ar
  1564 1439 1440 1
  1565 1440 1454 1
  1566 1440 1455 1
  1567 1441 1442 ar
  1568 1442 1443 ar
  1569 1442 1448 1
  1570 1399 1424 1
  1571 1457 1475 1
  1572 1457 1476 1
  1573 1457 1459 1
  1574 1458 1459 1
  1575 1458 1485 1
  1576 1458 1487 1
  1577 1458 1460 1
  1578 1460 1462 1
  1579 1460 1483 1
  1580 1460 1461 1
  1581 1461 1466 1
  1582 1462 1482 1
  1583 1462 1464 1
  1584 1462 1463 1
  1585 1464 1481 1
  1586 1464 1465 1
  1587 1464 1466 1
  1588 1465 1477 1
  1589 1466 1480 1
  1590 1466 1467 1
  1591 1467 1468 am
  1592 1467 1474 1
  1593 1468 1470 1
  1594 1468 1469 2
  1595 1470 1471 2
  1596 1471 1473 2
  1597 1471 1472 2
  1598 1472 1484 1
  1599 1472 1486 1
  1600 1473 1474 2
  1601 1473 1478 1
  1602 1474 1479 1
  1603 1430 1457 1
  1604 1488 1509 1
  1605 1488 1510 1
  1606 1488 1490 1
  1607 1489 1520 1
  1608 1489 1490 1
  1609 1489 1521 1
  1610 1489 1491 1
  1611 1491 1493 1
  1612 1491 1519 1
  1613 1491 1492 1
  1614 1492 1497 1
  1615 1493 1517 1
  1616 1493 1495 1
  1617 1493 1494 1
  1618 1495 1497 1
  1619 1495 1515 1
  1620 1495 1496 1
  1621 1496 1511 1
  1622 1497 1514 1
  1623 1497 1508 1
  1624 1498 1499 1
  1625 1498 1504 am
  1626 1498 1512 1
  1627 1499 1500 2
  1628 1499 1501 2
  1629 1500 1516 1
  1630 1500 1518 1
  1631 1501 1502 1
  1632 1502 1508 ar
  1633 1502 1503 ar
  1634 1503 1506 ar
  1635 1503 1504 1
  1636 1504 1505 2
  1637 1506 1507 ar
  1638 1507 1508 ar
  1639 1507 1513 1
  1640 1463 1488 1
  1641 1522 1543 1
  1642 1522 1524 1
  1643 1522 1542 1
  1644 1523 1524 1
  1645 1523 1551 1
  1646 1523 1554 1
  1647 1523 1525 1
  1648 1525 1527 1
  1649 1525 1550 1
  1650 1525 1526 1
  1651 1526 1531 1
  1652 1527 1549 1
  1653 1527 1529 1
  1654 1527 1528 1
  1655 1529 1548 1
  1656 1529 1530 1
  1657 1529 1531 1
  1658 1530 1544 1
  1659 1531 1547 1
  1660 1531 1541 1
  1661 1532 1537 ar
  1662 1532 1533 ar
  1663 1533 1545 1
  1664 1533 1534 ar
  1665 1534 1535 ar
  1666 1535 1541 ar
  1667 1535 1536 ar
  1668 1536 1539 ar
  1669 1536 1537 ar
  1670 1537 1538 1
  1671 1538 1552 1
  1672 1538 1553 1
  1673 1539 1540 ar
  1674 1540 1541 ar
  1675 1540 1546 1
  1676 1494 1522 1
  1677 1555 1576 1
  1678 1555 1557 1
  1679 1555 1575 1
  1680 1556 1557 1
  1681 1556 1584 1
  1682 1556 1587 1
  1683 1556 1558 1
  1684 1558 1560 1
  1685 1558 1583 1
  1686 1558 1559 1
  1687 1559 1564 1
  1688 1560 1582 1
  1689 1560 1562 1
  1690 1560 1561 1
  1691 1562 1581 1
  1692 1562 1563 1
  1693 1562 1564 1
  1694 1563 1577 1
  1695 1564 1580 1
  1696 1564 1574 1
  1697 1565 1570 ar
  1698 1565 1566 ar
  1699 1566 1578 1
  1700 1566 1567 ar
  1701 1567 1568 ar
  1702 1568 1574 ar
  1703 1568 1569 ar
  1704 1569 1572 ar
  1705 1569 1570 ar
  1706 1570 1571 1
  1707 1571 1585 1
  1708 1571 1586 1
  1709 1572 1573 ar
  1710 1573 1574 ar
  1711 1573 1579 1
  1712 1528 1555 1
  1713 1588 1606 1
  1714 1588 1607 1
  1715 1588 1590 1
  1716 1589 1616 1
  1717 1589 1617 1
  1718 1589 1591 1
  1719 1589 1590 1
  1720 1591 1615 1
  1721 1591 1592 1
  1722 1591 1593 1
  1723 1592 1597 1
  1724 1593 1595 1
  1725 1593 1614 1
  1726 1593 1594 1
  1727 1595 1613 1
  1728 1595 1596 1
  1729 1595 1597 1
  1730 1596 1608 1
  1731 1597 1612 1
  1732 1597 1598 1
  1733 1598 1605 1
  1734 1598 1599 am
  1735 1599 1600 2
  1736 1599 1601 am
  1737 1601 1602 am
  1738 1601 1609 1
  1739 1602 1604 1
  1740 1602 1603 2
  1741 1604 1605 2
  1742 1604 1610 1
  1743 1605 1611 1
  1744 1561 1588 1
  1745 1618 1636 1
  1746 1618 1637 1
  1747 1618 1620 1
  1748 1619 1620 1
  1749 1619 1646 1
  1750 1619 1648 1
  1751 1619 1621 1
  1752 1621 1623 1
  1753 1621 1644 1
  1754 1621 1622 1
  1755 1622 1627 1
  1756 1623 1643 1
  1757 1623 1625 1
  1758 1623 1624 1
  1759 1625 1642 1
  1760 1625 1626 1
  1761 1625 1627 1
  1762 1626 1638 1
  1763 1627 1641 1
  1764 1627 1628 1
  1765 1628 1629 am
  1766 1628 1635 1
  1767 1629 1631 1
  1768 1629 1630 2
  1769 1631 1632 2
  1770 1632 1634 2
  1771 1632 1633 2
  1772 1633 1645 1
  1773 1633 1647 1
  1774 1634 1635 2
  1775 1634 1639 1
  1776 1635 1640 1
  1777 1594 1618 1
  1778 1649 1667 1
  1779 1649 1668 1
  1780 1649 1651 1
  1781 1650 1651 1
  1782 1650 1677 1
  1783 1650 1679 1
  1784 1650 1652 1
  1785 1652 1654 1
  1786 1652 1675 1
  1787 1652 1653 1
  1788 1653 1658 1
  1789 1654 1674 1
  1790 1654 1656 1
  1791 1654 1655 1
  1792 1656 1673 1
  1793 1656 1657 1
  1794 1656 1658 1
  1795 1657 1669 1
  1796 1658 1672 1
  1797 1658 1659 1
  1798 1659 1660 am
  1799 1659 1666 1
  1800 1660 1662 1
  1801 1660 1661 2
  1802 1662 1663 2
  1803 1663 1665 2
  1804 1663 1664 2
  1805 1664 1676 1
  1806 1664 1678 1
  1807 1665 1666 2
  1808 1665 1670 1
  1809 1666 1671 1
  1810 1624 1649 1
  1811 1680 1701 1
  1812 1680 1682 1
  1813 1680 1700 1
  1814 1681 1682 1
  1815 1681 1709 1
  1816 1681 1712 1
  1817 1681 1683 1
  1818 1683 1685 1
  1819 1683 1708 1
  1820 1683 1684 1
  1821 1684 1689 1
  1822 1685 1707 1
  1823 1685 1687 1
  1824 1685 1686 1
  1825 1687 1706 1
  1826 1687 1688 1
  1827 1687 1689 1
  1828 1688 1702 1
  1829 1689 1705 1
  1830 1689 1699 1
  1831 1690 1695 ar
  1832 1690 1691 ar
  1833 1691 1703 1
  1834 1691 1692 ar
  1835 1692 1693 ar
  1836 1693 1699 ar
  1837 1693 1694 ar
  1838 1694 1697 ar
  1839 1694 1695 ar
  1840 1695 1696 1
  1841 1696 1710 1
  1842 1696 1711 1
  1843 1697 1698 ar
  1844 1698 1699 ar
  1845 1698 1704 1
  1846 1655 1680 1
  1847 1714 1715 1
  1848 1714 1716 1
  1849 1714 1742 1
  1850 1714 1743 1
  1851 1716 1718 1
  1852 1716 1741 1
  1853 1716 1717 1
  1854 1717 1722 1
  1855 1718 1740 1
  1856 1718 1720 1
  1857 1718 1719 1
  1858 1720 1739 1
  1859 1720 1721 1
  1860 1720 1722 1
  1861 1721 1733 1
  1862 1722 1738 1
  1863 1722 1723 1
  1864 1723 1730 1
  1865 1723 1724 am
  1866 1724 1726 am
  1867 1724 1725 2
  1868 1726 1727 am
  1869 1726 1735 1
  1870 1727 1729 1
  1871 1727 1728 2
  1872 1729 1730 2
  1873 1729 1736 1
  1874 1730 1737 1
  1875 1713 1715 1
  1876 1713 1731 1
  1877 1713 1732 1
  1878 1734 1719 1
  1879 1686 1713 1
  1880 1744 1747 1
  1881 1744 1756 1
  1882 1744 1760 1
  1883 1744 1763 1
  1884 1745 1757 1
  1885 1745 1761 1
  1886 1745 1763 1
  1887 1745 1764 1
  1888 1746 1747 1
  1889 1746 1748 1
  1890 1746 1781 1
  1891 1746 1782 1
  1892 1748 1749 1
  1893 1748 1750 1
  1894 1748 1780 1
  1895 1749 1754 1
  1896 1750 1751 1
  1897 1750 1752 1
  1898 1750 1779 1
  1899 1752 1753 1
  1900 1752 1754 1
  1901 1752 1778 1
  1902 1753 1774 1
  1903 1754 1771 1
  1904 1754 1777 1
  1905 1755 1758 ar
  1906 1755 1767 ar
  1907 1758 1759 1
  1908 1758 1762 ar
  1909 1759 1772 1
  1910 1759 1773 1
  1911 1762 1765 ar
  1912 1765 1766 ar
  1913 1765 1771 ar
  1914 1766 1767 ar
  1915 1766 1769 ar
  1916 1767 1768 1
  1917 1768 1775 1
  1918 1769 1770 ar
  1919 1770 1771 ar
  1920 1770 1776 1
  1921 1783 1804 1
  1922 1783 1805 1
  1923 1783 1785 1
  1924 1784 1815 1
  1925 1784 1785 1
  1926 1784 1816 1
  1927 1784 1786 1
  1928 1786 1788 1
  1929 1786 1814 1
  1930 1786 1787 1
  1931 1787 1792 1
  1932 1788 1812 1
  1933 1788 1790 1
  1934 1788 1789 1
  1935 1790 1792 1
  1936 1790 1810 1
  1937 1790 1791 1
  1938 1791 1806 1
  1939 1792 1809 1
  1940 1792 1803 1
  1941 1793 1794 1
  1942 1793 1799 am
  1943 1793 1807 1
  1944 1794 1795 2
  1945 1794 1796 2
  1946 1795 1811 1
  1947 1795 1813 1
  1948 1796 1797 1
  1949 1797 1803 ar
  1950 1797 1798 ar
  1951 1798 1801 ar
  1952 1798 1799 1
  1953 1799 1800 2
  1954 1801 1802 ar
  1955 1802 1803 ar
  1956 1802 1808 1
  1957 1783 1751 1
  1958 1817 1838 1
  1959 1817 1819 1
  1960 1817 1837 1
  1961 1818 1819 1
  1962 1818 1846 1
  1963 1818 1849 1
  1964 1818 1820 1
  1965 1820 1822 1
  1966 1820 1845 1
  1967 1820 1821 1
  1968 1821 1826 1
  1969 1822 1844 1
  1970 1822 1824 1
  1971 1822 1823 1
  1972 1824 1843 1
  1973 1824 1825 1
  1974 1824 1826 1
  1975 1825 1839 1
  1976 1826 1842 1
  1977 1826 1836 1
  1978 1827 1832 ar
  1979 1827 1828 ar
  1980 1828 1840 1
  1981 1828 1829 ar
  1982 1829 1830 ar
  1983 1830 1836 ar
  1984 1830 1831 ar
  1985 1831 1834 ar
  1986 1831 1832 ar
  1987 1832 1833 1
  1988 1833 1847 1
  1989 1833 1848 1
  1990 1834 1835 ar
  1991 1835 1836 ar
  1992 1835 1841 1
  1993 1789 1817 1
  1994 1850 1868 1
  1995 1850 1869 1
  1996 1850 1852 1
  1997 1851 1878 1
  1998 1851 1879 1
  1999 1851 1853 1
  2000 1851 1852 1
  2001 1853 1877 1
  2002 1853 1854 1
  2003 1853 1855 1
  2004 1854 1859 1
  2005 1855 1857 1
  2006 1855 1876 1
  2007 1855 1856 1
  2008 1857 1875 1
  2009 1857 1858 1
  2010 1857 1859 1
  2011 1858 1870 1
  2012 1859 1874 1
  2013 1859 1860 1
  2014 1860 1867 1
  2015 1860 1861 am
  2016 1861 1862 2
  2017 1861 1863 am
  2018 1863 1864 am
  2019 1863 1871 1
  2020 1864 1866 1
  2021 1864 1865 2
  2022 1866 1867 2
  2023 1866 1872 1
  2024 1867 1873 1
  2025 1823 1850 1
  2026 1880 1898 1
  2027 1880 1899 1
  2028 1880 1882 1
  2029 1881 1908 1
  2030 1881 1909 1
  2031 1881 1883 1
  2032 1881 1882 1
  2033 1883 1907 1
  2034 1883 1884 1
  2035 1883 1885 1
  2036 1884 1889 1
  2037 1885 1887 1
  2038 1885 1906 1
  2039 1885 1886 1
  2040 1887 1905 1
  2041 1887 1888 1
  2042 1887 1889 1
  2043 1888 1900 1
  2044 1889 1904 1
  2045 1889 1890 1
  2046 1890 1897 1
  2047 1890 1891 am
  2048 1891 1892 2
  2049 1891 1893 am
  2050 1893 1894 am
  2051 1893 1901 1
  2052 1894 1896 1
  2053 1894 1895 2
  2054 1896 1897 2
  2055 1896 1902 1
  2056 1897 1903 1
  2057 1856 1880 1
  2058 1910 1931 1
  2059 1910 1932 1
  2060 1910 1912 1
  2061 1911 1942 1
  2062 1911 1912 1
  2063 1911 1943 1
  2064 1911 1913 1
  2065 1913 1915 1
  2066 1913 1941 1
  2067 1913 1914 1
  2068 1914 1919 1
  2069 1915 1939 1
  2070 1915 1917 1
  2071 1915 1916 1
  2072 1917 1919 1
  2073 1917 1937 1
  2074 1917 1918 1
  2075 1918 1933 1
  2076 1919 1936 1
  2077 1919 1930 1
  2078 1920 1921 1
  2079 1920 1926 am
  2080 1920 1934 1
  2081 1921 1922 2
  2082 1921 1923 2
  2083 1922 1938 1
  2084 1922 1940 1
  2085 1923 1924 1
  2086 1924 1930 ar
  2087 1924 1925 ar
  2088 1925 1928 ar
  2089 1925 1926 1
  2090 1926 1927 2
  2091 1928 1929 ar
  2092 1929 1930 ar
  2093 1929 1935 1
  2094 1886 1910 1
  2095 1944 1965 1
  2096 1944 1946 1
  2097 1944 1964 1
  2098 1945 1946 1
  2099 1945 1973 1
  2100 1945 1976 1
  2101 1945 1947 1
  2102 1947 1949 1
  2103 1947 1972 1
  2104 1947 1948 1
  2105 1948 1953 1
  2106 1949 1971 1
  2107 1949 1951 1
  2108 1949 1950 1
  2109 1951 1970 1
  2110 1951 1952 1
  2111 1951 1953 1
  2112 1952 1966 1
  2113 1953 1969 1
  2114 1953 1963 1
  2115 1954 1959 ar
  2116 1954 1955 ar
  2117 1955 1967 1
  2118 1955 1956 ar
  2119 1956 1957 ar
  2120 1957 1963 ar
  2121 1957 1958 ar
  2122 1958 1961 ar
  2123 1958 1959 ar
  2124 1959 1960 1
  2125 1960 1974 1
  2126 1960 1975 1
  2127 1961 1962 ar
  2128 1962 1963 ar
  2129 1962 1968 1
  2130 1916 1944 1
  2131 1977 1995 1
  2132 1977 1996 1
  2133 1977 1979 1
  2134 1978 2005 1
  2135 1978 2006 1
  2136 1978 1980 1
  2137 1978 1979 1
  2138 1980 2004 1
  2139 1980 1981 1
  2140 1980 1982 1
  2141 1981 1986 1
  2142 1982 1984 1
  2143 1982 2003 1
  2144 1982 1983 1
  2145 1984 2002 1
  2146 1984 1985 1
  2147 1984 1986 1
  2148 1985 1997 1
  2149 1986 2001 1
  2150 1986 1987 1
  2151 1987 1994 1
  2152 1987 1988 am
  2153 1988 1989 2
  2154 1988 1990 am
  2155 1990 1991 am
  2156 1990 1998 1
  2157 1991 1993 1
  2158 1991 1992 2
  2159 1993 1994 2
  2160 1993 1999 1
  2161 1994 2000 1
  2162 1950 1977 1
  2163 2007 2025 1
  2164 2007 2026 1
  2165 2007 2009 1
  2166 2008 2035 1
  2167 2008 2036 1
  2168 2008 2010 1
  2169 2008 2009 1
  2170 2010 2034 1
  2171 2010 2011 1
  2172 2010 2012 1
  2173 2011 2016 1
  2174 2012 2014 1
  2175 2012 2033 1
  2176 2012 2013 1
  2177 2014 2032 1
  2178 2014 2015 1
  2179 2014 2016 1
  2180 2015 2027 1
  2181 2016 2031 1
  2182 2016 2017 1
  2183 2017 2024 1
  2184 2017 2018 am
  2185 2018 2019 2
  2186 2018 2020 am
  2187 2020 2021 am
  2188 2020 2028 1
  2189 2021 2023 1
  2190 2021 2022 2
  2191 2023 2024 2
  2192 2023 2029 1
  2193 2024 2030 1
  2194 1983 2007 1
  2195 2037 2055 1
  2196 2037 2056 1
  2197 2037 2039 1
  2198 2038 2065 1
  2199 2038 2066 1
  2200 2038 2040 1
  2201 2038 2039 1
  2202 2040 2064 1
  2203 2040 2041 1
  2204 2040 2042 1
  2205 2041 2046 1
  2206 2042 2044 1
  2207 2042 2063 1
  2208 2042 2043 1
  2209 2044 2062 1
  2210 2044 2045 1
  2211 2044 2046 1
  2212 2045 2057 1
  2213 2046 2061 1
  2214 2046 2047 1
  2215 2047 2054 1
  2216 2047 2048 am
  2217 2048 2049 2
  2218 2048 2050 am
  2219 2050 2051 am
  2220 2050 2058 1
  2221 2051 2053 1
  2222 2051 2052 2
  2223 2053 2054 2
  2224 2053 2059 1
  2225 2054 2060 1
  2226 2013 2037 1
  2227 2067 2088 1
  2228 2067 2089 1
  2229 2067 2069 1
  2230 2068 2099 1
  2231 2068 2069 1
  2232 2068 2100 1
  2233 2068 2070 1
  2234 2070 2072 1
  2235 2070 2098 1
  2236 2070 2071 1
  2237 2071 2076 1
  2238 2072 2096 1
  2239 2072 2074 1
  2240 2072 2073 1
  2241 2074 2076 1
  2242 2074 2094 1
  2243 2074 2075 1
  2244 2075 2090 1
  2245 2076 2093 1
  2246 2076 2087 1
  2247 2077 2078 1
  2248 2077 2083 am
  2249 2077 2091 1
  2250 2078 2079 2
  2251 2078 2080 2
  2252 2079 2095 1
  2253 2079 2097 1
  2254 2080 2081 1
  2255 2081 2087 ar
  2256 2081 2082 ar
  2257 2082 2085 ar
  2258 2082 2083 1
  2259 2083 2084 2
  2260 2085 2086 ar
  2261 2086 2087 ar
  2262 2086 2092 1
  2263 2043 2067 1
  2264 2101 2122 1
  2265 2101 2123 1
  2266 2101 2103 1
  2267 2102 2133 1
  2268 2102 2103 1
  2269 2102 2134 1
  2270 2102 2104 1
  2271 2104 2106 1
  2272 2104 2132 1
  2273 2104 2105 1
  2274 2105 2110 1
  2275 2106 2130 1
  2276 2106 2108 1
  2277 2106 2107 1
  2278 2108 2110 1
  2279 2108 2128 1
  2280 2108 2109 1
  2281 2109 2124 1
  2282 2110 2127 1
  2283 2110 2121 1
  2284 2111 2112 1
  2285 2111 2117 am
  2286 2111 2125 1
  2287 2112 2113 2
  2288 2112 2114 2
  2289 2113 2129 1
  2290 2113 2131 1
  2291 2114 2115 1
  2292 2115 2121 ar
  2293 2115 2116 ar
  2294 2116 2119 ar
  2295 2116 2117 1
  2296 2117 2118 2
  2297 2119 2120 ar
  2298 2120 2121 ar
  2299 2120 2126 1
  2300 2073 2101 1
  2301 2135 2153 1
  2302 2135 2154 1
  2303 2135 2137 1
  2304 2136 2163 1
  2305 2136 2164 1
  2306 2136 2138 1
  2307 2136 2137 1
  2308 2138 2162 1
  2309 2138 2139 1
  2310 2138 2140 1
  2311 2139 2144 1
  2312 2140 2142 1
  2313 2140 2161 1
  2314 2140 2141 1
  2315 2142 2160 1
  2316 2142 2143 1
  2317 2142 2144 1
  2318 2143 2155 1
  2319 2144 2159 1
  2320 2144 2145 1
  2321 2145 2152 1
  2322 2145 2146 am
  2323 2146 2147 2
  2324 2146 2148 am
  2325 2148 2149 am
  2326 2148 2156 1
  2327 2149 2151 1
  2328 2149 2150 2
  2329 2151 2152 2
  2330 2151 2157 1
  2331 2152 2158 1
  2332 2107 2135 1
  2333 2165 2186 1
  2334 2165 2187 1
  2335 2165 2167 1
  2336 2166 2197 1
  2337 2166 2167 1
  2338 2166 2198 1
  2339 2166 2168 1
  2340 2168 2170 1
  2341 2168 2196 1
  2342 2168 2169 1
  2343 2169 2174 1
  2344 2170 2194 1
  2345 2170 2172 1
  2346 2170 2171 1
  2347 2172 2174 1
  2348 2172 2192 1
  2349 2172 2173 1
  2350 2173 2188 1
  2351 2174 2191 1
  2352 2174 2185 1
  2353 2175 2176 1
  2354 2175 2181 am
  2355 2175 2189 1
  2356 2176 2177 2
  2357 2176 2178 2
  2358 2177 2193 1
  2359 2177 2195 1
  2360 2178 2179 1
  2361 2179 2185 ar
  2362 2179 2180 ar
  2363 2180 2183 ar
  2364 2180 2181 1
  2365 2181 2182 2
  2366 2183 2184 ar
  2367 2184 2185 ar
  2368 2184 2190 1
  2369 2141 2165 1
  2370 2199 2220 1
  2371 2199 2201 1
  2372 2199 2219 1
  2373 2200 2201 1
  2374 2200 2228 1
  2375 2200 2231 1
  2376 2200 2202 1
  2377 2202 2204 1
  2378 2202 2227 1
  2379 2202 2203 1
  2380 2203 2208 1
  2381 2204 2226 1
  2382 2204 2206 1
  2383 2204 2205 1
  2384 2206 2225 1
  2385 2206 2207 1
  2386 2206 2208 1
  2387 2207 2221 1
  2388 2208 2224 1
  2389 2208 2218 1
  2390 2209 2214 ar
  2391 2209 2210 ar
  2392 2210 2222 1
  2393 2210 2211 ar
  2394 2211 2212 ar
  2395 2212 2218 ar
  2396 2212 2213 ar
  2397 2213 2216 ar
  2398 2213 2214 ar
  2399 2214 2215 1
  2400 2215 2229 1
  2401 2215 2230 1
  2402 2216 2217 ar
  2403 2217 2218 ar
  2404 2217 2223 1
  2405 2171 2199 1
  2406 2232 2253 1
  2407 2232 2234 1
  2408 2232 2252 1
  2409 2233 2234 1
  2410 2233 2261 1
  2411 2233 2264 1
  2412 2233 2235 1
  2413 2235 2237 1
  2414 2235 2260 1
  2415 2235 2236 1
  2416 2236 2241 1
  2417 2237 2259 1
  2418 2237 2239 1
  2419 2237 2238 1
  2420 2239 2258 1
  2421 2239 2240 1
  2422 2239 2241 1
  2423 2240 2254 1
  2424 2241 2257 1
  2425 2241 2251 1
  2426 2242 2247 ar
  2427 2242 2243 ar
  2428 2243 2255 1
  2429 2243 2244 ar
  2430 2244 2245 ar
  2431 2245 2251 ar
  2432 2245 2246 ar
  2433 2246 2249 ar
  2434 2246 2247 ar
  2435 2247 2248 1
  2436 2248 2262 1
  2437 2248 2263 1
  2438 2249 2250 ar
  2439 2250 2251 ar
  2440 2250 2256 1
  2441 2205 2232 1
  2442 2265 2286 1
  2443 2265 2267 1
  2444 2265 2285 1
  2445 2266 2267 1
  2446 2266 2294 1
  2447 2266 2297 1
  2448 2266 2268 1
  2449 2268 2270 1
  2450 2268 2293 1
  2451 2268 2269 1
  2452 2269 2274 1
  2453 2270 2292 1
  2454 2270 2272 1
  2455 2270 2271 1
  2456 2272 2291 1
  2457 2272 2273 1
  2458 2272 2274 1
  2459 2273 2287 1
  2460 2274 2290 1
  2461 2274 2284 1
  2462 2275 2280 ar
  2463 2275 2276 ar
  2464 2276 2288 1
  2465 2276 2277 ar
  2466 2277 2278 ar
  2467 2278 2284 ar
  2468 2278 2279 ar
  2469 2279 2282 ar
  2470 2279 2280 ar
  2471 2280 2281 1
  2472 2281 2295 1
  2473 2281 2296 1
  2474 2282 2283 ar
  2475 2283 2284 ar
  2476 2283 2289 1
  2477 2238 2265 1
  2478 2298 2316 1
  2479 2298 2317 1
  2480 2298 2300 1
  2481 2299 2326 1
  2482 2299 2327 1
  2483 2299 2301 1
  2484 2299 2300 1
  2485 2301 2325 1
  2486 2301 2302 1
  2487 2301 2303 1
  2488 2302 2307 1
  2489 2303 2305 1
  2490 2303 2324 1
  2491 2303 2304 1
  2492 2305 2323 1
  2493 2305 2306 1
  2494 2305 2307 1
  2495 2306 2318 1
  2496 2307 2322 1
  2497 2307 2308 1
  2498 2308 2315 1
  2499 2308 2309 am
  2500 2309 2310 2
  2501 2309 2311 am
  2502 2311 2312 am
  2503 2311 2319 1
  2504 2312 2314 1
  2505 2312 2313 2
  2506 2314 2315 2
  2507 2314 2320 1
  2508 2315 2321 1
  2509 2271 2298 1
  2510 2328 2346 1
  2511 2328 2347 1
  2512 2328 2330 1
  2513 2329 2356 1
  2514 2329 2357 1
  2515 2329 2331 1
  2516 2329 2330 1
  2517 2331 2355 1
  2518 2331 2332 1
  2519 2331 2333 1
  2520 2332 2337 1
  2521 2333 2335 1
  2522 2333 2354 1
  2523 2333 2334 1
  2524 2335 2353 1
  2525 2335 2336 1
  2526 2335 2337 1
  2527 2336 2348 1
  2528 2337 2352 1
  2529 2337 2338 1
  2530 2338 2345 1
  2531 2338 2339 am
  2532 2339 2340 2
  2533 2339 2341 am
  2534 2341 2342 am
  2535 2341 2349 1
  2536 2342 2344 1
  2537 2342 2343 2
  2538 2344 2345 2
  2539 2344 2350 1
  2540 2345 2351 1
  2541 2304 2328 1
  2542 2358 2376 1
  2543 2358 2377 1
  2544 2358 2360 1
  2545 2359 2360 1
  2546 2359 2386 1
  2547 2359 2388 1
  2548 2359 2361 1
  2549 2361 2363 1
  2550 2361 2384 1
  2551 2361 2362 1
  2552 2362 2367 1
  2553 2363 2383 1
  2554 2363 2365 1
  2555 2363 2364 1
  2556 2365 2382 1
  2557 2365 2366 1
  2558 2365 2367 1
  2559 2366 2378 1
  2560 2367 2381 1
  2561 2367 2368 1
  2562 2368 2369 am
  2563 2368 2375 1
  2564 2369 2371 1
  2565 2369 2370 2
  2566 2371 2372 2
  2567 2372 2374 2
  2568 2372 2373 2
  2569 2373 2385 1
  2570 2373 2387 1
  2571 2374 2375 2
  2572 2374 2379 1
  2573 2375 2380 1
  2574 2334 2358 1
  2575 2389 2407 1
  2576 2389 2408 1
  2577 2389 2391 1
  2578 2390 2391 1
  2579 2390 2417 1
  2580 2390 2419 1
  2581 2390 2392 1
  2582 2392 2394 1
  2583 2392 2415 1
  2584 2392 2393 1
  2585 2393 2398 1
  2586 2394 2414 1
  2587 2394 2396 1
  2588 2394 2395 1
  2589 2396 2413 1
  2590 2396 2397 1
  2591 2396 2398 1
  2592 2397 2409 1
  2593 2398 2412 1
  2594 2398 2399 1
  2595 2399 2400 am
  2596 2399 2406 1
  2597 2400 2402 1
  2598 2400 2401 2
  2599 2402 2403 2
  2600 2403 2405 2
  2601 2403 2404 2
  2602 2404 2416 1
  2603 2404 2418 1
  2604 2405 2406 2
  2605 2405 2410 1
  2606 2406 2411 1
  2607 2364 2389 1
  2608 2420 2441 1
  2609 2420 2422 1
  2610 2420 2440 1
  2611 2421 2422 1
  2612 2421 2449 1
  2613 2421 2452 1
  2614 2421 2423 1
  2615 2423 2425 1
  2616 2423 2448 1
  2617 2423 2424 1
  2618 2424 2429 1
  2619 2425 2447 1
  2620 2425 2427 1
  2621 2425 2426 1
  2622 2427 2446 1
  2623 2427 2428 1
  2624 2427 2429 1
  2625 2428 2442 1
  2626 2429 2445 1
  2627 2429 2439 1
  2628 2430 2435 ar
  2629 2430 2431 ar
  2630 2431 2443 1
  2631 2431 2432 ar
  2632 2432 2433 ar
  2633 2433 2439 ar
  2634 2433 2434 ar
  2635 2434 2437 ar
  2636 2434 2435 ar
  2637 2435 2436 1
  2638 2436 2450 1
  2639 2436 2451 1
  2640 2437 2438 ar
  2641 2438 2439 ar
  2642 2438 2444 1
  2643 2395 2420 1
  2644 2453 2474 1
  2645 2453 2455 1
  2646 2453 2473 1
  2647 2454 2455 1
  2648 2454 2482 1
  2649 2454 2485 1
  2650 2454 2456 1
  2651 2456 2458 1
  2652 2456 2481 1
  2653 2456 2457 1
  2654 2457 2462 1
  2655 2458 2480 1
  2656 2458 2460 1
  2657 2458 2459 1
  2658 2460 2479 1
  2659 2460 2461 1
  2660 2460 2462 1
  2661 2461 2475 1
  2662 2462 2478 1
  2663 2462 2472 1
  2664 2463 2468 ar
  2665 2463 2464 ar
  2666 2464 2476 1
  2667 2464 2465 ar
  2668 2465 2466 ar
  2669 2466 2472 ar
  2670 2466 2467 ar
  2671 2467 2470 ar
  2672 2467 2468 ar
  2673 2468 2469 1
  2674 2469 2483 1
  2675 2469 2484 1
  2676 2470 2471 ar
  2677 2471 2472 ar
  2678 2471 2477 1
  2679 2426 2453 1
  2680 2486 2507 1
  2681 2486 2488 1
  2682 2486 2506 1
  2683 2487 2488 1
  2684 2487 2515 1
  2685 2487 2518 1
  2686 2487 2489 1
  2687 2489 2491 1
  2688 2489 2514 1
  2689 2489 2490 1
  2690 2490 2495 1
  2691 2491 2513 1
  2692 2491 2493 1
  2693 2491 2492 1
  2694 2493 2512 1
  2695 2493 2494 1
  2696 2493 2495 1
  2697 2494 2508 1
  2698 2495 2511 1
  2699 2495 2505 1
  2700 2496 2501 ar
  2701 2496 2497 ar
  2702 2497 2509 1
  2703 2497 2498 ar
  2704 2498 2499 ar
  2705 2499 2505 ar
  2706 2499 2500 ar
  2707 2500 2503 ar
  2708 2500 2501 ar
  2709 2501 2502 1
  2710 2502 2516 1
  2711 2502 2517 1
  2712 2503 2504 ar
  2713 2504 2505 ar
  2714 2504 2510 1
  2715 2459 2486 1
  2716 2519 2540 1
  2717 2519 2521 1
  2718 2519 2539 1
  2719 2520 2521 1
  2720 2520 2548 1
  2721 2520 2551 1
  2722 2520 2522 1
  2723 2522 2524 1
  2724 2522 2547 1
  2725 2522 2523 1
  2726 2523 2528 1
  2727 2524 2546 1
  2728 2524 2526 1
  2729 2524 2525 1
  2730 2526 2545 1
  2731 2526 2527 1
  2732 2526 2528 1
  2733 2527 2541 1
  2734 2528 2544 1
  2735 2528 2538 1
  2736 2529 2534 ar
  2737 2529 2530 ar
  2738 2530 2542 1
  2739 2530 2531 ar
  2740 2531 2532 ar
  2741 2532 2538 ar
  2742 2532 2533 ar
  2743 2533 2536 ar
  2744 2533 2534 ar
  2745 2534 2535 1
  2746 2535 2549 1
  2747 2535 2550 1
  2748 2536 2537 ar
  2749 2537 2538 ar
  2750 2537 2543 1
  2751 2492 2519 1
  2752 2552 2570 1
  2753 2552 2571 1
  2754 2552 2554 1
  2755 2553 2554 1
  2756 2553 2580 1
  2757 2553 2582 1
  2758 2553 2555 1
  2759 2555 2557 1
  2760 2555 2578 1
  2761 2555 2556 1
  2762 2556 2561 1
  2763 2557 2577 1
  2764 2557 2559 1
  2765 2557 2558 1
  2766 2559 2576 1
  2767 2559 2560 1
  2768 2559 2561 1
  2769 2560 2572 1
  2770 2561 2575 1
  2771 2561 2562 1
  2772 2562 2563 am
  2773 2562 2569 1
  2774 2563 2565 1
  2775 2563 2564 2
  2776 2565 2566 2
  2777 2566 2568 2
  2778 2566 2567 2
  2779 2567 2579 1
  2780 2567 2581 1
  2781 2568 2569 2
  2782 2568 2573 1
  2783 2569 2574 1
  2784 2525 2552 1
  2785 2583 2601 1
  2786 2583 2602 1
  2787 2583 2585 1
  2788 2584 2585 1
  2789 2584 2611 1
  2790 2584 2613 1
  2791 2584 2586 1
  2792 2586 2588 1
  2793 2586 2609 1
  2794 2586 2587 1
  2795 2587 2592 1
  2796 2588 2608 1
  2797 2588 2590 1
  2798 2588 2589 1
  2799 2590 2607 1
  2800 2590 2591 1
  2801 2590 2592 1
  2802 2591 2603 1
  2803 2592 2606 1
  2804 2592 2593 1
  2805 2593 2594 am
  2806 2593 2600 1
  2807 2594 2596 1
  2808 2594 2595 2
  2809 2596 2597 2
  2810 2597 2599 2
  2811 2597 2598 2
  2812 2598 2610 1
  2813 2598 2612 1
  2814 2599 2600 2
  2815 2599 2604 1
  2816 2600 2605 1
  2817 2558 2583 1
  2818 2614 2635 1
  2819 2614 2636 1
  2820 2614 2616 1
  2821 2615 2646 1
  2822 2615 2616 1
  2823 2615 2647 1
  2824 2615 2617 1
  2825 2617 2619 1
  2826 2617 2645 1
  2827 2617 2618 1
  2828 2618 2623 1
  2829 2619 2643 1
  2830 2619 2621 1
  2831 2619 2620 1
  2832 2621 2623 1
  2833 2621 2641 1
  2834 2621 2622 1
  2835 2622 2637 1
  2836 2623 2640 1
  2837 2623 2634 1
  2838 2624 2625 1
  2839 2624 2630 am
  2840 2624 2638 1
  2841 2625 2626 2
  2842 2625 2627 2
  2843 2626 2642 1
  2844 2626 2644 1
  2845 2627 2628 1
  2846 2628 2634 ar
  2847 2628 2629 ar
  2848 2629 2632 ar
  2849 2629 2630 1
  2850 2630 2631 2
  2851 2632 2633 ar
  2852 2633 2634 ar
  2853 2633 2639 1
  2854 2589 2614 1
  2855 2648 2669 1
  2856 2648 2650 1
  2857 2648 2668 1
  2858 2649 2650 1
  2859 2649 2677 1
  2860 2649 2680 1
  2861 2649 2651 1
  2862 2651 2653 1
  2863 2651 2676 1
  2864 2651 2652 1
  2865 2652 2657 1
  2866 2653 2675 1
  2867 2653 2655 1
  2868 2653 2654 1
  2869 2655 2674 1
  2870 2655 2656 1
  2871 2655 2657 1
  2872 2656 2670 1
  2873 2657 2673 1
  2874 2657 2667 1
  2875 2658 2663 ar
  2876 2658 2659 ar
  2877 2659 2671 1
  2878 2659 2660 ar
  2879 2660 2661 ar
  2880 2661 2667 ar
  2881 2661 2662 ar
  2882 2662 2665 ar
  2883 2662 2663 ar
  2884 2663 2664 1
  2885 2664 2678 1
  2886 2664 2679 1
  2887 2665 2666 ar
  2888 2666 2667 ar
  2889 2666 2672 1
  2890 2620 2648 1
  2891 2681 2699 1
  2892 2681 2700 1
  2893 2681 2683 1
  2894 2682 2683 1
  2895 2682 2709 1
  2896 2682 2711 1
  2897 2682 2684 1
  2898 2684 2686 1
  2899 2684 2707 1
  2900 2684 2685 1
  2901 2685 2690 1
  2902 2686 2706 1
  2903 2686 2688 1
  2904 2686 2687 1
  2905 2688 2705 1
  2906 2688 2689 1
  2907 2688 2690 1
  2908 2689 2701 1
  2909 2690 2704 1
  2910 2690 2691 1
  2911 2691 2692 am
  2912 2691 2698 1
  2913 2692 2694 1
  2914 2692 2693 2
  2915 2694 2695 2
  2916 2695 2697 2
  2917 2695 2696 2
  2918 2696 2708 1
  2919 2696 2710 1
  2920 2697 2698 2
  2921 2697 2702 1
  2922 2698 2703 1
  2923 2654 2681 1
  2924 2712 2733 1
  2925 2712 2714 1
  2926 2712 2732 1
  2927 2713 2714 1
  2928 2713 2741 1
  2929 2713 2744 1
  2930 2713 2715 1
  2931 2715 2717 1
  2932 2715 2740 1
  2933 2715 2716 1
  2934 2716 2721 1
  2935 2717 2739 1
  2936 2717 2719 1
  2937 2717 2718 1
  2938 2719 2738 1
  2939 2719 2720 1
  2940 2719 2721 1
  2941 2720 2734 1
  2942 2721 2737 1
  2943 2721 2731 1
  2944 2722 2727 ar
  2945 2722 2723 ar
  2946 2723 2735 1
  2947 2723 2724 ar
  2948 2724 2725 ar
  2949 2725 2731 ar
  2950 2725 2726 ar
  2951 2726 2729 ar
  2952 2726 2727 ar
  2953 2727 2728 1
  2954 2728 2742 1
  2955 2728 2743 1
  2956 2729 2730 ar
  2957 2730 2731 ar
  2958 2730 2736 1
  2959 2687 2712 1
  2960 2745 2766 1
  2961 2745 2767 1
  2962 2745 2747 1
  2963 2746 2777 1
  2964 2746 2747 1
  2965 2746 2778 1
  2966 2746 2748 1
  2967 2748 2750 1
  2968 2748 2776 1
  2969 2748 2749 1
  2970 2749 2754 1
  2971 2750 2774 1
  2972 2750 2752 1
  2973 2750 2751 1
  2974 2752 2754 1
  2975 2752 2772 1
  2976 2752 2753 1
  2977 2753 2768 1
  2978 2754 2771 1
  2979 2754 2765 1
  2980 2755 2756 1
  2981 2755 2761 am
  2982 2755 2769 1
  2983 2756 2757 2
  2984 2756 2758 2
  2985 2757 2773 1
  2986 2757 2775 1
  2987 2758 2759 1
  2988 2759 2765 ar
  2989 2759 2760 ar
  2990 2760 2763 ar
  2991 2760 2761 1
  2992 2761 2762 2
  2993 2763 2764 ar
  2994 2764 2765 ar
  2995 2764 2770 1
  2996 2718 2745 1
  2997 2779 2797 1
  2998 2779 2798 1
  2999 2779 2781 1
  3000 2780 2807 1
  3001 2780 2808 1
  3002 2780 2782 1
  3003 2780 2781 1
  3004 2782 2806 1
  3005 2782 2783 1
  3006 2782 2784 1
  3007 2783 2788 1
  3008 2784 2786 1
  3009 2784 2805 1
  3010 2784 2785 1
  3011 2786 2804 1
  3012 2786 2787 1
  3013 2786 2788 1
  3014 2787 2799 1
  3015 2788 2803 1
  3016 2788 2789 1
  3017 2789 2796 1
  3018 2789 2790 am
  3019 2790 2791 2
  3020 2790 2792 am
  3021 2792 2793 am
  3022 2792 2800 1
  3023 2793 2795 1
  3024 2793 2794 2
  3025 2795 2796 2
  3026 2795 2801 1
  3027 2796 2802 1
  3028 2751 2779 1
  3029 2809 2830 1
  3030 2809 2811 1
  3031 2809 2829 1
  3032 2810 2811 1
  3033 2810 2838 1
  3034 2810 2841 1
  3035 2810 2812 1
  3036 2812 2814 1
  3037 2812 2837 1
  3038 2812 2813 1
  3039 2813 2818 1
  3040 2814 2836 1
  3041 2814 2816 1
  3042 2814 2815 1
  3043 2816 2835 1
  3044 2816 2817 1
  3045 2816 2818 1
  3046 2817 2831 1
  3047 2818 2834 1
  3048 2818 2828 1
  3049 2819 2824 ar
  3050 2819 2820 ar
  3051 2820 2832 1
  3052 2820 2821 ar
  3053 2821 2822 ar
  3054 2822 2828 ar
  3055 2822 2823 ar
  3056 2823 2826 ar
  3057 2823 2824 ar
  3058 2824 2825 1
  3059 2825 2839 1
  3060 2825 2840 1
  3061 2826 2827 ar
  3062 2827 2828 ar
  3063 2827 2833 1
  3064 2785 2809 1
  3065 2842 2863 1
  3066 2842 2864 1
  3067 2842 2844 1
  3068 2843 2874 1
  3069 2843 2844 1
  3070 2843 2875 1
  3071 2843 2845 1
  3072 2845 2847 1
  3073 2845 2873 1
  3074 2845 2846 1
  3075 2846 2851 1
  3076 2847 2871 1
  3077 2847 2849 1
  3078 2847 2848 1
  3079 2849 2851 1
  3080 2849 2869 1
  3081 2849 2850 1
  3082 2850 2865 1
  3083 2851 2868 1
  3084 2851 2862 1
  3085 2852 2853 1
  3086 2852 2858 am
  3087 2852 2866 1
  3088 2853 2854 2
  3089 2853 2855 2
  3090 2854 2870 1
  3091 2854 2872 1
  3092 2855 2856 1
  3093 2856 2862 ar
  3094 2856 2857 ar
  3095 2857 2860 ar
  3096 2857 2858 1
  3097 2858 2859 2
  3098 2860 2861 ar
  3099 2861 2862 ar
  3100 2861 2867 1
  3101 2815 2842 1
  3102 2876 2897 1
  3103 2876 2878 1
  3104 2876 2896 1
  3105 2877 2878 1
  3106 2877 2905 1
  3107 2877 2908 1
  3108 2877 2879 1
  3109 2879 2881 1
  3110 2879 2904 1
  3111 2879 2880 1
  3112 2880 2885 1
  3113 2881 2903 1
  3114 2881 2883 1
  3115 2881 2882 1
  3116 2883 2902 1
  3117 2883 2884 1
  3118 2883 2885 1
  3119 2884 2898 1
  3120 2885 2901 1
  3121 2885 2895 1
  3122 2886 2891 ar
  3123 2886 2887 ar
  3124 2887 2899 1
  3125 2887 2888 ar
  3126 2888 2889 ar
  3127 2889 2895 ar
  3128 2889 2890 ar
  3129 2890 2893 ar
  3130 2890 2891 ar
  3131 2891 2892 1
  3132 2892 2906 1
  3133 2892 2907 1
  3134 2893 2894 ar
  3135 2894 2895 ar
  3136 2894 2900 1
  3137 2848 2876 1
  3138 2909 2930 1
  3139 2909 2931 1
  3140 2909 2911 1
  3141 2910 2941 1
  3142 2910 2911 1
  3143 2910 2942 1
  3144 2910 2912 1
  3145 2912 2914 1
  3146 2912 2940 1
  3147 2912 2913 1
  3148 2913 2918 1
  3149 2914 2938 1
  3150 2914 2916 1
  3151 2914 2915 1
  3152 2916 2918 1
  3153 2916 2936 1
  3154 2916 2917 1
  3155 2917 2932 1
  3156 2918 2935 1
  3157 2918 2929 1
  3158 2919 2920 1
  3159 2919 2925 am
  3160 2919 2933 1
  3161 2920 2921 2
  3162 2920 2922 2
  3163 2921 2937 1
  3164 2921 2939 1
  3165 2922 2923 1
  3166 2923 2929 ar
  3167 2923 2924 ar
  3168 2924 2927 ar
  3169 2924 2925 1
  3170 2925 2926 2
  3171 2927 2928 ar
  3172 2928 2929 ar
  3173 2928 2934 1
  3174 2882 2909 1
  3175 2943 2961 1
  3176 2943 2962 1
  3177 2943 2945 1
  3178 2944 2971 1
  3179 2944 2972 1
  3180 2944 2946 1
  3181 2944 2945 1
  3182 2946 2970 1
  3183 2946 2947 1
  3184 2946 2948 1
  3185 2947 2952 1
  3186 2948 2950 1
  3187 2948 2969 1
  3188 2948 2949 1
  3189 2950 2968 1
  3190 2950 2951 1
  3191 2950 2952 1
  3192 2951 2963 1
  3193 2952 2967 1
  3194 2952 2953 1
  3195 2953 2960 1
  3196 2953 2954 am
  3197 2954 2955 2
  3198 2954 2956 am
  3199 2956 2957 am
  3200 2956 2964 1
  3201 2957 2959 1
  3202 2957 2958 2
  3203 2959 2960 2
  3204 2959 2965 1
  3205 2960 2966 1
  3206 2915 2943 1
  3207 2973 2991 1
  3208 2973 2992 1
  3209 2973 2975 1
  3210 2974 2975 1
  3211 2974 3001 1
  3212 2974 3003 1
  3213 2974 2976 1
  3214 2976 2978 1
  3215 2976 2999 1
  3216 2976 2977 1
  3217 2977 2982 1
  3218 2978 2998 1
  3219 2978 2980 1
  3220 2978 2979 1
  3221 2980 2997 1
  3222 2980 2981 1
  3223 2980 2982 1
  3224 2981 2993 1
  3225 2982 2996 1
  3226 2982 2983 1
  3227 2983 2984 am
  3228 2983 2990 1
  3229 2984 2986 1
  3230 2984 2985 2
  3231 2986 2987 2
  3232 2987 2989 2
  3233 2987 2988 2
  3234 2988 3000 1
  3235 2988 3002 1
  3236 2989 2990 2
  3237 2989 2994 1
  3238 2990 2995 1
  3239 2949 2973 1
  3240 3004 3022 1
  3241 3004 3023 1
  3242 3004 3006 1
  3243 3005 3032 1
  3244 3005 3033 1
  3245 3005 3007 1
  3246 3005 3006 1
  3247 3007 3031 1
  3248 3007 3008 1
  3249 3007 3009 1
  3250 3008 3013 1
  3251 3009 3011 1
  3252 3009 3030 1
  3253 3009 3010 1
  3254 3011 3029 1
  3255 3011 3012 1
  3256 3011 3013 1
  3257 3012 3024 1
  3258 3013 3028 1
  3259 3013 3014 1
  3260 3014 3021 1
  3261 3014 3015 am
  3262 3015 3016 2
  3263 3015 3017 am
  3264 3017 3018 am
  3265 3017 3025 1
  3266 3018 3020 1
  3267 3018 3019 2
  3268 3020 3021 2
  3269 3020 3026 1
  3270 3021 3027 1
  3271 2979 3004 1
  3272 3034 3055 1
  3273 3034 3056 1
  3274 3034 3036 1
  3275 3035 3066 1
  3276 3035 3036 1
  3277 3035 3067 1
  3278 3035 3037 1
  3279 3037 3039 1
  3280 3037 3065 1
  3281 3037 3038 1
  3282 3038 3043 1
  3283 3039 3063 1
  3284 3039 3041 1
  3285 3039 3040 1
  3286 3041 3043 1
  3287 3041 3061 1
  3288 3041 3042 1
  3289 3042 3057 1
  3290 3043 3060 1
  3291 3043 3054 1
  3292 3044 3045 1
  3293 3044 3050 am
  3294 3044 3058 1
  3295 3045 3046 2
  3296 3045 3047 2
  3297 3046 3062 1
  3298 3046 3064 1
  3299 3047 3048 1
  3300 3048 3054 ar
  3301 3048 3049 ar
  3302 3049 3052 ar
  3303 3049 3050 1
  3304 3050 3051 2
  3305 3052 3053 ar
  3306 3053 3054 ar
  3307 3053 3059 1
  3308 3010 3034 1
  3309 3068 3089 1
  3310 3068 3090 1
  3311 3068 3070 1
  3312 3069 3100 1
  3313 3069 3070 1
  3314 3069 3101 1
  3315 3069 3071 1
  3316 3071 3073 1
  3317 3071 3099 1
  3318 3071 3072 1
  3319 3072 3077 1
  3320 3073 3097 1
  3321 3073 3075 1
  3322 3073 3074 1
  3323 3075 3077 1
  3324 3075 3095 1
  3325 3075 3076 1
  3326 3076 3091 1
  3327 3077 3094 1
  3328 3077 3088 1
  3329 3078 3079 1
  3330 3078 3084 am
  3331 3078 3092 1
  3332 3079 3080 2
  3333 3079 3081 2
  3334 3080 3096 1
  3335 3080 3098 1
  3336 3081 3082 1
  3337 3082 3088 ar
  3338 3082 3083 ar
  3339 3083 3086 ar
  3340 3083 3084 1
  3341 3084 3085 2
  3342 3086 3087 ar
  3343 3087 3088 ar
  3344 3087 3093 1
  3345 3040 3068 1
  3346 3102 3123 1
  3347 3102 3104 1
  3348 3102 3122 1
  3349 3103 3104 1
  3350 3103 3131 1
  3351 3103 3134 1
  3352 3103 3105 1
  3353 3105 3107 1
  3354 3105 3130 1
  3355 3105 3106 1
  3356 3106 3111 1
  3357 3107 3129 1
  3358 3107 3109 1
  3359 3107 3108 1
  3360 3109 3128 1
  3361 3109 3110 1
  3362 3109 3111 1
  3363 3110 3124 1
  3364 3111 3127 1
  3365 3111 3121 1
  3366 3112 3117 ar
  3367 3112 3113 ar
  3368 3113 3125 1
  3369 3113 3114 ar
  3370 3114 3115 ar
  3371 3115 3121 ar
  3372 3115 3116 ar
  3373 3116 3119 ar
  3374 3116 3117 ar
  3375 3117 3118 1
  3376 3118 3132 1
  3377 3118 3133 1
  3378 3119 3120 ar
  3379 3120 3121 ar
  3380 3120 3126 1
  3381 3074 3102 1
  3382 3135 3153 1
  3383 3135 3154 1
  3384 3135 3137 1
  3385 3136 3163 1
  3386 3136 3164 1
  3387 3136 3138 1
  3388 3136 3137 1
  3389 3138 3162 1
  3390 3138 3139 1
  3391 3138 3140 1
  3392 3139 3144 1
  3393 3140 3142 1
  3394 3140 3161 1
  3395 3140 3141 1
  3396 3142 3160 1
  3397 3142 3143 1
  3398 3142 3144 1
  3399 3143 3155 1
  3400 3144 3159 1
  3401 3144 3145 1
  3402 3145 3152 1
  3403 3145 3146 am
  3404 3146 3147 2
  3405 3146 3148 am
  3406 3148 3149 am
  3407 3148 3156 1
  3408 3149 3151 1
  3409 3149 3150 2
  3410 3151 3152 2
  3411 3151 3157 1
  3412 3152 3158 1
  3413 3108 3135 1
  3414 3165 3186 1
  3415 3165 3187 1
  3416 3165 3167 1
  3417 3166 3197 1
  3418 3166 3167 1
  3419 3166 3198 1
  3420 3166 3168 1
  3421 3168 3170 1
  3422 3168 3196 1
  3423 3168 3169 1
  3424 3169 3174 1
  3425 3170 3194 1
  3426 3170 3172 1
  3427 3170 3171 1
  3428 3172 3174 1
  3429 3172 3192 1
  3430 3172 3173 1
  3431 3173 3188 1
  3432 3174 3191 1
  3433 3174 3185 1
  3434 3175 3176 1
  3435 3175 3181 am
  3436 3175 3189 1
  3437 3176 3177 2
  3438 3176 3178 2
  3439 3177 3193 1
  3440 3177 3195 1
  3441 3178 3179 1
  3442 3179 3185 ar
  3443 3179 3180 ar
  3444 3180 3183 ar
  3445 3180 3181 1
  3446 3181 3182 2
  3447 3183 3184 ar
  3448 3184 3185 ar
  3449 3184 3190 1
  3450 3141 3165 1
  3451 3199 3220 1
  3452 3199 3201 1
  3453 3199 3219 1
  3454 3200 3201 1
  3455 3200 3228 1
  3456 3200 3231 1
  3457 3200 3202 1
  3458 3202 3204 1
  3459 3202 3227 1
  3460 3202 3203 1
  3461 3203 3208 1
  3462 3204 3226 1
  3463 3204 3206 1
  3464 3204 3205 1
  3465 3206 3225 1
  3466 3206 3207 1
  3467 3206 3208 1
  3468 3207 3221 1
  3469 3208 3224 1
  3470 3208 3218 1
  3471 3209 3214 ar
  3472 3209 3210 ar
  3473 3210 3222 1
  3474 3210 3211 ar
  3475 3211 3212 ar
  3476 3212 3218 ar
  3477 3212 3213 ar
  3478 3213 3216 ar
  3479 3213 3214 ar
  3480 3214 3215 1
  3481 3215 3229 1
  3482 3215 3230 1
  3483 3216 3217 ar
  3484 3217 3218 ar
  3485 3217 3223 1
  3486 3171 3199 1
  3487 3232 3253 1
  3488 3232 3254 1
  3489 3232 3234 1
  3490 3233 3264 1
  3491 3233 3234 1
  3492 3233 3265 1
  3493 3233 3235 1
  3494 3235 3237 1
  3495 3235 3263 1
  3496 3235 3236 1
  3497 3236 3241 1
  3498 3237 3261 1
  3499 3237 3239 1
  3500 3237 3238 1
  3501 3239 3241 1
  3502 3239 3259 1
  3503 3239 3240 1
  3504 3240 3255 1
  3505 3241 3258 1
  3506 3241 3252 1
  3507 3242 3243 1
  3508 3242 3248 am
  3509 3242 3256 1
  3510 3243 3244 2
  3511 3243 3245 2
  3512 3244 3260 1
  3513 3244 3262 1
  3514 3245 3246 1
  3515 3246 3252 ar
  3516 3246 3247 ar
  3517 3247 3250 ar
  3518 3247 3248 1
  3519 3248 3249 2
  3520 3250 3251 ar
  3521 3251 3252 ar
  3522 3251 3257 1
  3523 3205 3232 1
  3524 3266 3287 1
  3525 3266 3268 1
  3526 3266 3286 1
  3527 3267 3268 1
  3528 3267 3295 1
  3529 3267 3298 1
  3530 3267 3269 1
  3531 3269 3271 1
  3532 3269 3294 1
  3533 3269 3270 1
  3534 3270 3275 1
  3535 3271 3293 1
  3536 3271 3273 1
  3537 3271 3272 1
  3538 3273 3292 1
  3539 3273 3274 1
  3540 3273 3275 1
  3541 3274 3288 1
  3542 3275 3291 1
  3543 3275 3285 1
  3544 3276 3281 ar
  3545 3276 3277 ar
  3546 3277 3289 1
  3547 3277 3278 ar
  3548 3278 3279 ar
  3549 3279 3285 ar
  3550 3279 3280 ar
  3551 3280 3283 ar
  3552 3280 3281 ar
  3553 3281 3282 1
  3554 3282 3296 1
  3555 3282 3297 1
  3556 3283 3284 ar
  3557 3284 3285 ar
  3558 3284 3290 1
  3559 3238 3266 1
  3560 3299 3320 1
  3561 3299 3321 1
  3562 3299 3301 1
  3563 3300 3331 1
  3564 3300 3301 1
  3565 3300 3332 1
  3566 3300 3302 1
  3567 3302 3304 1
  3568 3302 3330 1
  3569 3302 3303 1
  3570 3303 3308 1
  3571 3304 3328 1
  3572 3304 3306 1
  3573 3304 3305 1
  3574 3306 3308 1
  3575 3306 3326 1
  3576 3306 3307 1
  3577 3307 3322 1
  3578 3308 3325 1
  3579 3308 3319 1
  3580 3309 3310 1
  3581 3309 3315 am
  3582 3309 3323 1
  3583 3310 3311 2
  3584 3310 3312 2
  3585 3311 3327 1
  3586 3311 3329 1
  3587 3312 3313 1
  3588 3313 3319 ar
  3589 3313 3314 ar
  3590 3314 3317 ar
  3591 3314 3315 1
  3592 3315 3316 2
  3593 3317 3318 ar
  3594 3318 3319 ar
  3595 3318 3324 1
  3596 3272 3299 1
  3597 3333 3354 1
  3598 3333 3335 1
  3599 3333 3353 1
  3600 3334 3335 1
  3601 3334 3362 1
  3602 3334 3365 1
  3603 3334 3336 1
  3604 3336 3338 1
  3605 3336 3361 1
  3606 3336 3337 1
  3607 3337 3342 1
  3608 3338 3360 1
  3609 3338 3340 1
  3610 3338 3339 1
  3611 3340 3359 1
  3612 3340 3341 1
  3613 3340 3342 1
  3614 3341 3355 1
  3615 3342 3358 1
  3616 3342 3352 1
  3617 3343 3348 ar
  3618 3343 3344 ar
  3619 3344 3356 1
  3620 3344 3345 ar
  3621 3345 3346 ar
  3622 3346 3352 ar
  3623 3346 3347 ar
  3624 3347 3350 ar
  3625 3347 3348 ar
  3626 3348 3349 1
  3627 3349 3363 1
  3628 3349 3364 1
  3629 3350 3351 ar
  3630 3351 3352 ar
  3631 3351 3357 1
  3632 3305 3333 1
  3633 3366 3387 1
  3634 3366 3368 1
  3635 3366 3386 1
  3636 3367 3368 1
  3637 3367 3395 1
  3638 3367 3398 1
  3639 3367 3369 1
  3640 3369 3371 1
  3641 3369 3394 1
  3642 3369 3370 1
  3643 3370 3375 1
  3644 3371 3393 1
  3645 3371 3373 1
  3646 3371 3372 1
  3647 3373 3392 1
  3648 3373 3374 1
  3649 3373 3375 1
  3650 3374 3388 1
  3651 3375 3391 1
  3652 3375 3385 1
  3653 3376 3381 ar
  3654 3376 3377 ar
  3655 3377 3389 1
  3656 3377 3378 ar
  3657 3378 3379 ar
  3658 3379 3385 ar
  3659 3379 3380 ar
  3660 3380 3383 ar
  3661 3380 3381 ar
  3662 3381 3382 1
  3663 3382 3396 1
  3664 3382 3397 1
  3665 3383 3384 ar
  3666 3384 3385 ar
  3667 3384 3390 1
  3668 3339 3366 1
  3669 3399 3420 1
  3670 3399 3421 1
  3671 3399 3401 1
  3672 3400 3431 1
  3673 3400 3401 1
  3674 3400 3432 1
  3675 3400 3402 1
  3676 3402 3404 1
  3677 3402 3430 1
  3678 3402 3403 1
  3679 3403 3408 1
  3680 3404 3428 1
  3681 3404 3406 1
  3682 3404 3405 1
  3683 3406 3408 1
  3684 3406 3426 1
  3685 3406 3407 1
  3686 3407 3422 1
  3687 3408 3425 1
  3688 3408 3419 1
  3689 3409 3410 1
  3690 3409 3415 am
  3691 3409 3423 1
  3692 3410 3411 2
  3693 3410 3412 2
  3694 3411 3427 1
  3695 3411 3429 1
  3696 3412 3413 1
  3697 3413 3419 ar
  3698 3413 3414 ar
  3699 3414 3417 ar
  3700 3414 3415 1
  3701 3415 3416 2
  3702 3417 3418 ar
  3703 3418 3419 ar
  3704 3418 3424 1
  3705 3372 3399 1
  3706 3433 3454 1
  3707 3433 3435 1
  3708 3433 3453 1
  3709 3434 3435 1
  3710 3434 3462 1
  3711 3434 3465 1
  3712 3434 3436 1
  3713 3436 3438 1
  3714 3436 3461 1
  3715 3436 3437 1
  3716 3437 3442 1
  3717 3438 3460 1
  3718 3438 3440 1
  3719 3438 3439 1
  3720 3440 3459 1
  3721 3440 3441 1
  3722 3440 3442 1
  3723 3441 3455 1
  3724 3442 3458 1
  3725 3442 3452 1
  3726 3443 3448 ar
  3727 3443 3444 ar
  3728 3444 3456 1
  3729 3444 3445 ar
  3730 3445 3446 ar
  3731 3446 3452 ar
  3732 3446 3447 ar
  3733 3447 3450 ar
  3734 3447 3448 ar
  3735 3448 3449 1
  3736 3449 3463 1
  3737 3449 3464 1
  3738 3450 3451 ar
  3739 3451 3452 ar
  3740 3451 3457 1
  3741 3405 3433 1
  3742 3466 3484 1
  3743 3466 3485 1
  3744 3466 3468 1
  3745 3467 3494 1
  3746 3467 3495 1
  3747 3467 3469 1
  3748 3467 3468 1
  3749 3469 3493 1
  3750 3469 3470 1
  3751 3469 3471 1
  3752 3470 3475 1
  3753 3471 3473 1
  3754 3471 3492 1
  3755 3471 3472 1
  3756 3473 3491 1
  3757 3473 3474 1
  3758 3473 3475 1
  3759 3474 3486 1
  3760 3475 3490 1
  3761 3475 3476 1
  3762 3476 3483 1
  3763 3476 3477 am
  3764 3477 3478 2
  3765 3477 3479 am
  3766 3479 3480 am
  3767 3479 3487 1
  3768 3480 3482 1
  3769 3480 3481 2
  3770 3482 3483 2
  3771 3482 3488 1
  3772 3483 3489 1
  3773 3439 3466 1
  3774 3496 3514 1
  3775 3496 3515 1
  3776 3496 3498 1
  3777 3497 3524 1
  3778 3497 3525 1
  3779 3497 3499 1
  3780 3497 3498 1
  3781 3499 3523 1
  3782 3499 3500 1
  3783 3499 3501 1
  3784 3500 3505 1
  3785 3501 3503 1
  3786 3501 3522 1
  3787 3501 3502 1
  3788 3503 3521 1
  3789 3503 3504 1
  3790 3503 3505 1
  3791 3504 3516 1
  3792 3505 3520 1
  3793 3505 3506 1
  3794 3506 3513 1
  3795 3506 3507 am
  3796 3507 3508 2
  3797 3507 3509 am
  3798 3509 3510 am
  3799 3509 3517 1
  3800 3510 3512 1
  3801 3510 3511 2
  3802 3512 3513 2
  3803 3512 3518 1
  3804 3513 3519 1
  3805 3472 3496 1
  3806 3526 3544 1
  3807 3526 3545 1
  3808 3526 3528 1
  3809 3527 3528 1
  3810 3527 3554 1
  3811 3527 3556 1
  3812 3527 3529 1
  3813 3529 3531 1
  3814 3529 3552 1
  3815 3529 3530 1
  3816 3530 3535 1
  3817 3531 3551 1
  3818 3531 3533 1
  3819 3531 3532 1
  3820 3533 3550 1
  3821 3533 3534 1
  3822 3533 3535 1
  3823 3534 3546 1
  3824 3535 3549 1
  3825 3535 3536 1
  3826 3536 3537 am
  3827 3536 3543 1
  3828 3537 3539 1
  3829 3537 3538 2
  3830 3539 3540 2
  3831 3540 3542 2
  3832 3540 3541 2
  3833 3541 3553 1
  3834 3541 3555 1
  3835 3542 3543 2
  3836 3542 3547 1
  3837 3543 3548 1
  3838 3502 3526 1
  3839 3558 3590 1
  3840 3558 3591 1
  3841 3558 3560 1
  3842 3558 3559 1
  3843 3560 3562 1
  3844 3560 3589 1
  3845 3560 3561 1
  3846 3561 3566 1
  3847 3562 3587 1
  3848 3562 3564 1
  3849 3562 3563 1
  3850 3564 3585 1
  3851 3564 3566 1
  3852 3564 3565 1
  3853 3565 3580 1
  3854 3566 3584 1
  3855 3566 3577 1
  3856 3567 3573 am
  3857 3567 3582 1
  3858 3567 3568 1
  3859 3568 3570 2
  3860 3568 3569 2
  3861 3569 3586 1
  3862 3569 3588 1
  3863 3570 3571 1
  3864 3571 3577 ar
  3865 3571 3572 ar
  3866 3572 3575 ar
  3867 3572 3573 1
  3868 3573 3574 2
  3869 3575 3576 ar
  3870 3576 3577 ar
  3871 3576 3583 1
  3872 3557 3559 1
  3873 3557 3578 1
  3874 3557 3579 1
  3875 3581 3563 1
  3876 3532 3557 1
@<TRIPOS>SUBSTRUCTURE
     1 GTP     5 RESIDUE           4 X     GTP     1 ROOT
     2   G    43 RESIDUE           4 X       G     2
     3   A    77 RESIDUE           4 X       A     2
     4   U   110 RESIDUE           4 X       U     2
     5   C   140 RESIDUE           4 X       C     2
     6   U   171 RESIDUE           4 X       U     2
     7   U   201 RESIDUE           4 X       U     2
     8   C   231 RESIDUE           4 X       C     2
     9   G   262 RESIDUE           4 X       G     2
    10   G   296 RESIDUE           4 X       G     2
    11   G   330 RESIDUE           4 X       G     2
    12   G   364 RESIDUE           4 X       G     2
    13   C   398 RESIDUE           4 X       C     2
    14   A   429 RESIDUE           4 X       A     2
    15   G   462 RESIDUE           4 X       G     2
    16   G   496 RESIDUE           4 X       G     2
    17   G   530 RESIDUE           4 X       G     2
    18   U   564 RESIDUE           4 X       U     2
    19   G   594 RESIDUE           4 X       G     2
    20   A   628 RESIDUE           4 X       A     2
    21   A   661 RESIDUE           4 X       A     2
    22   A   694 RESIDUE           4 X       A     2
    23   U   727 RESIDUE           4 X       U     2
    24   U   757 RESIDUE           4 X       U     2
    25   C   787 RESIDUE           4 X       C     2
    26   C   818 RESIDUE           4 X       C     2
    27   C   849 RESIDUE           4 X       C     2
    28   G   880 RESIDUE           4 X       G     2
    29   A   914 RESIDUE           4 X       A     2
    30   C   947 RESIDUE           4 X       C     2
    31   C   978 RESIDUE           4 X       C     2
    32   G  1009 RESIDUE           4 X       G     2
    33   G  1043 RESIDUE           4 X       G     2
    34   U  1077 RESIDUE           4 X       U     2
    35   G  1107 RESIDUE           4 X       G     2
    36   G  1141 RESIDUE           4 X       G     2
    37   U  1175 RESIDUE           4 X       U     2
    38   A  1205 RESIDUE           4 X       A     2
    39   U  1238 RESIDUE           4 X       U     2
    40   A  1268 RESIDUE           4 X       A     2
    41   G  1301 RESIDUE           4 X       G     2
    42   U  1335 RESIDUE           4 X       U     2
    43   C  1365 RESIDUE           4 X       C     2
    44   C  1396 RESIDUE           4 X       C     2
    45   A  1427 RESIDUE           4 X       A     2
    46   C  1460 RESIDUE           4 X       C     2
    47   G  1491 RESIDUE           4 X       G     2
    48   A  1525 RESIDUE           4 X       A     2
    49   A  1558 RESIDUE           4 X       A     2
    50   U  1591 RESIDUE           4 X       U     2
    51   C  1621 RESIDUE           4 X       C     2
    52   C  1652 RESIDUE           4 X       C     2
    53   A  1683 RESIDUE           4 X       A     2
    54   U  1716 RESIDUE           4 X       U     1
    55 GTP  1748 RESIDUE           4 Z     GTP     1 ROOT
    56   G  1786 RESIDUE           4 Z       G     2
    57   A  1820 RESIDUE           4 Z       A     2
    58   U  1853 RESIDUE           4 Z       U     2
    59   U  1883 RESIDUE           4 Z       U     2
    60   G  1913 RESIDUE           4 Z       G     2
    61   A  1947 RESIDUE           4 Z       A     2
    62   U  1980 RESIDUE           4 Z       U     2
    63   U  2010 RESIDUE           4 Z       U     2
    64   U  2040 RESIDUE           4 Z       U     2
    65   G  2070 RESIDUE           4 Z       G     2
    66   G  2104 RESIDUE           4 Z       G     2
    67   U  2138 RESIDUE           4 Z       U     2
    68   G  2168 RESIDUE           4 Z       G     2
    69   A  2202 RESIDUE           4 Z       A     2
    70   A  2235 RESIDUE           4 Z       A     2
    71   A  2268 RESIDUE           4 Z       A     2
    72   U  2301 RESIDUE           4 Z       U     2
    73   U  2331 RESIDUE           4 Z       U     2
    74   C  2361 RESIDUE           4 Z       C     2
    75   C  2392 RESIDUE           4 Z       C     2
    76   A  2423 RESIDUE           4 Z       A     2
    77   A  2456 RESIDUE           4 Z       A     2
    78   A  2489 RESIDUE           4 Z       A     2
    79   A  2522 RESIDUE           4 Z       A     2
    80   C  2555 RESIDUE           4 Z       C     2
    81   C  2586 RESIDUE           4 Z       C     2
    82   G  2617 RESIDUE           4 Z       G     2
    83   A  2651 RESIDUE           4 Z       A     2
    84   C  2684 RESIDUE           4 Z       C     2
    85   A  2715 RESIDUE           4 Z       A     2
    86   G  2748 RESIDUE           4 Z       G     2
    87   U  2782 RESIDUE           4 Z       U     2
    88   A  2812 RESIDUE           4 Z       A     2
    89   G  2845 RESIDUE           4 Z       G     2
    90   A  2879 RESIDUE           4 Z       A     2
    91   G  2912 RESIDUE           4 Z       G     2
    92   U  2946 RESIDUE           4 Z       U     2
    93   C  2976 RESIDUE           4 Z       C     2
    94   U  3007 RESIDUE           4 Z       U     2
    95   G  3037 RESIDUE           4 Z       G     2
    96   G  3071 RESIDUE           4 Z       G     2
    97   A  3105 RESIDUE           4 Z       A     2
    98   U  3138 RESIDUE           4 Z       U     2
    99   G  3168 RESIDUE           4 Z       G     2
   100   A  3202 RESIDUE           4 Z       A     2
   101   G  3235 RESIDUE           4 Z       G     2
   102   A  3269 RESIDUE           4 Z       A     2
   103   G  3302 RESIDUE           4 Z       G     2
   104   A  3336 RESIDUE           4 Z       A     2
   105   A  3369 RESIDUE           4 Z       A     2
   106   G  3402 RESIDUE           4 Z       G     2
   107   A  3436 RESIDUE           4 Z       A     2
   108   U  3469 RESIDUE           4 Z       U     2
   109   U  3499 RESIDUE           4 Z       U     2
   110   C  3529 RESIDUE           4 Z       C     2
   111   G  3560 RESIDUE           4 Z       G     1
