REMARK  15 active torsions:
REMARK  status: ('A' for Active; 'I' for Inactive)
REMARK    1  A    between atoms: O_3  and  P_1 
REMARK    2  A    between atoms: O_4  and  P_1 
REMARK    3  A    between atoms: O_5  and  P_1 
REMARK    4  A    between atoms: P_6  and  O_5 
REMARK    5  A    between atoms: O_8  and  P_6 
REMARK    6  A    between atoms: O_9  and  P_6 
REMARK    7  A    between atoms: P_10  and  O_9 
REMARK    8  A    between atoms: O_12  and  P_10 
REMARK    9  A    between atoms: O_13  and  P_10 
REMARK   10  A    between atoms: C_14  and  O_13 
REMARK   11  A    between atoms: C_15  and  C_14 
REMARK   12  A    between atoms: N_22  and  C_17 
REMARK   13  A    between atoms: O_21  and  C_18 
REMARK   14  A    between atoms: O_20  and  C_19 
REMARK   15  A    between atoms: N_31  and  C_30 
ROOT
ATOM      1  C   UNL d   1       0.417  -2.646  -1.214  0.00  0.00     0.180 C 
ATOM      2  O   UNL d   1      -0.279  -1.386  -1.264  0.00  0.00    -0.353 OA
ATOM      3  C   UNL d   1       0.554  -0.481  -2.021  0.00  0.00     0.262 C 
ATOM      4  C   UNL d   1       1.962  -1.093  -2.053  0.00  0.00     0.198 C 
ATOM      5  C   UNL d   1       1.863  -2.217  -1.025  0.00  0.00     0.182 C 
ENDROOT
BRANCH   1   6
ATOM      6  C   UNL d   1      -0.206  -3.530  -0.143  0.00  0.00     0.215 C 
BRANCH   6   7
ATOM      7  O   UNL d   1       0.077  -3.059   1.163  0.00  0.00    -0.294 OA
BRANCH   7   8
ATOM      8  P   UNL d   1      -0.646  -3.773   2.424  0.00  0.00     0.401 P 
ATOM      9  O   UNL d   1      -1.406  -5.037   2.136  0.00  0.00    -0.631 OA
BRANCH   8  10
ATOM     10  O   UNL d   1      -1.516  -2.589   3.086  0.00  0.00    -0.195 OA
BRANCH  10  11
ATOM     11  P   UNL d   1      -2.738  -1.664   2.576  0.00  0.00     0.410 P 
ATOM     12  O   UNL d   1      -3.575  -1.073   3.671  0.00  0.00    -0.631 OA
BRANCH  11  13
ATOM     13  O   UNL d   1      -3.538  -2.600   1.530  0.00  0.00    -0.195 OA
BRANCH  13  14
ATOM     14  P   UNL d   1      -4.957  -3.366   1.638  0.00  0.00     0.399 P 
ATOM     15  O   UNL d   1      -5.553  -3.437   3.013  0.00  0.00    -0.631 OA
BRANCH  14  16
ATOM     16  O   UNL d   1      -4.647  -4.801   0.959  0.00  0.00    -0.307 OA
ATOM     17  H   UNL d   1      -4.554  -5.585   1.542  0.00  0.00     0.222 HD
ENDBRANCH  14  16
BRANCH  14  18
ATOM     18  O   UNL d   1      -5.872  -2.615   0.535  0.00  0.00    -0.307 OA
ATOM     19  H   UNL d   1      -6.471  -3.141  -0.038  0.00  0.00     0.222 HD
ENDBRANCH  14  18
ENDBRANCH  13  14
ENDBRANCH  11  13
BRANCH  11  20
ATOM     20  O   UNL d   1      -2.012  -0.578   1.622  0.00  0.00    -0.307 OA
ATOM     21  H   UNL d   1      -1.084  -0.724   1.343  0.00  0.00     0.222 HD
ENDBRANCH  11  20
ENDBRANCH  10  11
ENDBRANCH   8  10
BRANCH   8  22
ATOM     22  O   UNL d   1       0.565  -3.956   3.481  0.00  0.00    -0.307 OA
ATOM     23  H   UNL d   1       0.898  -3.172   3.967  0.00  0.00     0.222 HD
ENDBRANCH   8  22
ENDBRANCH   7   8
ENDBRANCH   6   7
ENDBRANCH   1   6
BRANCH   5  24
ATOM     24  O   UNL d   1       2.759  -3.280  -1.293  0.00  0.00    -0.390 OA
ATOM     25  H   UNL d   1       3.628  -3.021  -0.942  0.00  0.00     0.210 HD
ENDBRANCH   5  24
BRANCH   3  26
ATOM     26  N   UNL d   1       0.351   0.854  -1.479  0.00  0.00    -0.294 N 
ATOM     27  C   UNL d   1      -0.412   1.774  -2.186  0.00  0.00     0.214 A 
ATOM     28  N   UNL d   1      -0.156   3.019  -1.856  0.00  0.00    -0.234 NA
ATOM     29  C   UNL d   1       0.860   2.911  -0.962  0.00  0.00     0.172 A 
ATOM     30  C   UNL d   1       1.517   3.977  -0.265  0.00  0.00     0.280 A 
ATOM     31  C   UNL d   1       1.198   1.601  -0.695  0.00  0.00     0.171 A 
ATOM     32  O   UNL d   1       1.388   5.160  -0.560  0.00  0.00    -0.265 OA
ATOM     33  N   UNL d   1       2.376   3.476   0.717  0.00  0.00    -0.296 N 
ATOM     34  H   UNL d   1       2.826   4.149   1.331  0.00  0.00     0.171 HD
ATOM     35  C   UNL d   1       2.570   2.105   1.005  0.00  0.00     0.181 A 
ATOM     36  N   UNL d   1       2.047   1.147   0.267  0.00  0.00    -0.200 NA
BRANCH  35  37
ATOM     37  N   UNL d   1       3.395   1.864   2.087  0.00  0.00    -0.272 NA
ATOM     38  H   UNL d   1       4.369   1.673   1.857  0.00  0.00     0.127 HD
ATOM     39  H   UNL d   1       3.058   1.156   2.736  0.00  0.00     0.127 HD
ENDBRANCH  35  37
ENDBRANCH   3  26
BRANCH   4  40
ATOM     40  O   UNL d   1       2.160  -1.625  -3.370  0.00  0.00    -0.388 OA
ATOM     41  H   UNL d   1       2.594  -2.490  -3.289  0.00  0.00     0.210 HD
ENDBRANCH   4  40
TORSDOF 15
