ligand.pdb
  1228              3D

 48 50  0  0  0  0  0  0  0  0999 V2000
   -4.9572   -3.3663    1.6381 P   0  0  0  0  0  0  0  0  0  0  0  0
   -5.5526   -3.4372    3.0132 O   0  0  0  0  0  0  0  0  0  0  0  0
   -4.6472   -4.8013    0.9591 O   0  0  0  0  0  0  0  0  0  0  0  0
   -5.8719   -2.6154    0.5350 O   0  0  0  0  0  0  0  0  0  0  0  0
   -3.5380   -2.6002    1.5303 O   0  0  0  0  0  0  0  0  0  0  0  0
   -2.7381   -1.6642    2.5759 P   0  0  0  0  0  0  0  0  0  0  0  0
   -3.5750   -1.0727    3.6708 O   0  0  0  0  0  0  0  0  0  0  0  0
   -2.0123   -0.5782    1.6218 O   0  0  0  0  0  0  0  0  0  0  0  0
   -1.5164   -2.5886    3.0856 O   0  0  0  0  0  0  0  0  0  0  0  0
   -0.6462   -3.7734    2.4241 P   0  0  0  0  0  0  0  0  0  0  0  0
   -1.4062   -5.0365    2.1360 O   0  0  0  0  0  0  0  0  0  0  0  0
    0.5653   -3.9564    3.4809 O   0  0  0  0  0  0  0  0  0  0  0  0
    0.0771   -3.0590    1.1634 O   0  0  0  0  0  0  0  0  0  0  0  0
   -0.2057   -3.5305   -0.1435 C   0  0  0  0  0  0  0  0  0  0  0  0
    0.4166   -2.6458   -1.2139 C   0  0  0  0  0  0  0  0  0  0  0  0
    0.2763   -3.1430   -2.1858 H   0  0  0  0  0  0  0  0  0  0  0  0
   -0.2792   -1.3864   -1.2643 O   0  0  0  0  0  0  0  0  0  0  0  0
    0.5536   -0.4814   -2.0214 C   0  0  0  0  0  0  0  0  0  0  0  0
    0.1407   -0.4649   -3.0391 H   0  0  0  0  0  0  0  0  0  0  0  0
    1.9621   -1.0933   -2.0532 C   0  0  0  0  0  0  0  0  0  0  0  0
    2.7832   -0.3951   -1.8681 H   0  0  0  0  0  0  0  0  0  0  0  0
    1.8635   -2.2166   -1.0249 C   0  0  0  0  0  0  0  0  0  0  0  0
    2.0412   -1.8334   -0.0149 H   0  0  0  0  0  0  0  0  0  0  0  0
    2.7587   -3.2799   -1.2934 O   0  0  0  0  0  0  0  0  0  0  0  0
    2.1605   -1.6245   -3.3703 O   0  0  0  0  0  0  0  0  0  0  0  0
    0.3507    0.8535   -1.4786 N   0  0  0  0  0  0  0  0  0  0  0  0
   -0.4119    1.7745   -2.1861 C   0  0  0  0  0  0  0  0  0  0  0  0
   -0.1560    3.0188   -1.8563 N   0  0  0  0  0  0  0  0  0  0  0  0
    0.8604    2.9108   -0.9623 C   0  0  0  0  0  0  0  0  0  0  0  0
    1.5174    3.9767   -0.2649 C   0  0  0  0  0  0  0  0  0  0  0  0
    1.3883    5.1597   -0.5596 O   0  0  0  0  0  0  0  0  0  0  0  0
    2.3762    3.4756    0.7167 N   0  0  0  0  0  0  0  0  0  0  0  0
    2.8264    4.1488    1.3308 H   0  0  0  0  0  0  0  0  0  0  0  0
    2.5696    2.1051    1.0051 C   0  0  0  0  0  0  0  0  0  0  0  0
    3.3951    1.8639    2.0866 N   0  0  0  0  0  0  0  0  0  0  0  0
    2.0472    1.1466    0.2668 N   0  0  0  0  0  0  0  0  0  0  0  0
    1.1984    1.6014   -0.6946 C   0  0  0  0  0  0  0  0  0  0  0  0
   -4.5545   -5.5851    1.5417 H   0  0  0  0  0  0  0  0  0  0  0  0
   -6.4711   -3.1406   -0.0376 H   0  0  0  0  0  0  0  0  0  0  0  0
   -1.0840   -0.7244    1.3428 H   0  0  0  0  0  0  0  0  0  0  0  0
    0.8983   -3.1719    3.9673 H   0  0  0  0  0  0  0  0  0  0  0  0
    0.1616   -4.5576   -0.2462 H   0  0  0  0  0  0  0  0  0  0  0  0
   -1.2927   -3.5550   -0.2809 H   0  0  0  0  0  0  0  0  0  0  0  0
    3.6279   -3.0207   -0.9421 H   0  0  0  0  0  0  0  0  0  0  0  0
    2.5938   -2.4905   -3.2889 H   0  0  0  0  0  0  0  0  0  0  0  0
   -1.2108    1.4538   -2.8435 H   0  0  0  0  0  0  0  0  0  0  0  0
    4.3688    1.6734    1.8573 H   0  0  0  0  0  0  0  0  0  0  0  0
    3.0584    1.1561    2.7358 H   0  0  0  0  0  0  0  0  0  0  0  0
  2  1  2  0  0  0  0
  3  1  1  0  0  0  0
  4  1  1  0  0  0  0
  5  1  1  0  0  0  0
  6  5  1  0  0  0  0
  7  6  2  0  0  0  0
  8  6  1  0  0  0  0
  9  6  1  0  0  0  0
 10  9  1  0  0  0  0
 11 10  2  0  0  0  0
 12 10  1  0  0  0  0
 13 10  1  0  0  0  0
 14 13  1  0  0  0  0
 15 14  1  0  0  0  0
 15 16  1  0  0  0  0
 17 15  1  0  0  0  0
 18 17  1  0  0  0  0
 18 19  1  0  0  0  0
 20 18  1  0  0  0  0
 20 21  1  0  0  0  0
 22 20  1  0  0  0  0
 22 23  1  0  0  0  0
 22 15  1  0  0  0  0
 24 22  1  0  0  0  0
 25 20  1  0  0  0  0
 26 18  1  0  0  0  0
 27 26  1  0  0  0  0
 28 27  2  0  0  0  0
 29 28  1  0  0  0  0
 30 29  1  0  0  0  0
 31 30  2  0  0  0  0
 32 30  1  0  0  0  0
 32 33  1  0  0  0  0
 34 32  1  0  0  0  0
 35 34  1  0  0  0  0
 36 34  2  0  0  0  0
 37 36  1  0  0  0  0
 37 26  1  0  0  0  0
 37 29  2  0  0  0  0
  3 38  1  0  0  0  0
  4 39  1  0  0  0  0
  8 40  1  0  0  0  0
 12 41  1  0  0  0  0
 14 42  1  0  0  0  0
 14 43  1  0  0  0  0
 24 44  1  0  0  0  0
 25 45  1  0  0  0  0
 27 46  1  0  0  0  0
 35 47  1  0  0  0  0
 35 48  1  0  0  0  0
M  END
>  <energy>
29.966995122174758

$$$$
