@<TRIPOS>MOLECULE
ligand.pdb
 48 50 0 0 0
SMALL
GASTEIGER

@<TRIPOS>ATOM
      1 P          -4.9572   -3.3663    1.6381 P.3     1  UNL1        0.4808
      2 O          -5.5526   -3.4372    3.0132 O.2     1  UNL1       -0.2271
      3 O          -4.6472   -4.8013    0.9591 O.3     1  UNL1       -0.3023
      4 O          -5.8719   -2.6154    0.5350 O.3     1  UNL1       -0.3023
      5 O          -3.5380   -2.6002    1.5303 O.3     1  UNL1       -0.1859
      6 P          -2.7381   -1.6642    2.5759 P.3     1  UNL1        0.4918
      7 O          -3.5750   -1.0727    3.6708 O.2     1  UNL1       -0.2265
      8 O          -2.0123   -0.5782    1.6218 O.3     1  UNL1       -0.3019
      9 O          -1.5164   -2.5886    3.0856 O.3     1  UNL1       -0.1858
     10 P          -0.6462   -3.7734    2.4241 P.3     1  UNL1        0.4835
     11 O          -1.4062   -5.0365    2.1360 O.2     1  UNL1       -0.2269
     12 O           0.5653   -3.9564    3.4809 O.3     1  UNL1       -0.3022
     13 O           0.0771   -3.0590    1.1634 O.3     1  UNL1       -0.2837
     14 C          -0.2057   -3.5305   -0.1435 C.3     1  UNL1        0.0879
     15 C           0.4166   -2.6458   -1.2139 C.3     1  UNL1        0.1134
     16 H           0.2763   -3.1430   -2.1858 H       1  UNL1        0.0647
     17 O          -0.2792   -1.3864   -1.2643 O.3     1  UNL1       -0.3456
     18 C           0.5536   -0.4814   -2.0214 C.3     1  UNL1        0.1667
     19 H           0.1407   -0.4649   -3.0391 H       1  UNL1        0.0866
     20 C           1.9621   -1.0933   -2.0532 C.3     1  UNL1        0.1285
     21 H           2.7832   -0.3951   -1.8681 H       1  UNL1        0.0665
     22 C           1.8635   -2.2166   -1.0249 C.3     1  UNL1        0.1135
     23 H           2.0412   -1.8334   -0.0149 H       1  UNL1        0.0647
     24 O           2.7587   -3.2799   -1.2934 O.3     1  UNL1       -0.3864
     25 O           2.1605   -1.6245   -3.3703 O.3     1  UNL1       -0.3847
     26 N           0.3507    0.8535   -1.4786 N.ar    1  UNL1       -0.2854
     27 C          -0.4119    1.7745   -2.1861 C.ar    1  UNL1        0.1005
     28 N          -0.1560    3.0188   -1.8563 N.ar    1  UNL1       -0.2286
     29 C           0.8604    2.9108   -0.9623 C.ar    1  UNL1        0.1721
     30 C           1.5174    3.9767   -0.2649 C.ar    1  UNL1        0.2803
     31 O           1.3883    5.1597   -0.5596 O.2     1  UNL1       -0.2654
     32 N           2.3762    3.4756    0.7167 N.ar    1  UNL1       -0.2934
     33 H           2.8264    4.1488    1.3308 H       1  UNL1        0.1716
     34 C           2.5696    2.1051    1.0051 C.ar    1  UNL1        0.1950
     35 N           3.3951    1.8639    2.0866 N.pl3   1  UNL1       -0.3289
     36 N           2.0472    1.1466    0.2668 N.ar    1  UNL1       -0.1963
     37 C           1.1984    1.6014   -0.6946 C.ar    1  UNL1        0.1712
     38 H          -4.5545   -5.5851    1.5417 H       1  UNL1        0.2220
     39 H          -6.4711   -3.1406   -0.0376 H       1  UNL1        0.2220
     40 H          -1.0840   -0.7244    1.3428 H       1  UNL1        0.2220
     41 H           0.8983   -3.1719    3.9673 H       1  UNL1        0.2220
     42 H           0.1616   -4.5576   -0.2462 H       1  UNL1        0.0592
     43 H          -1.2927   -3.5550   -0.2809 H       1  UNL1        0.0592
     44 H           3.6279   -3.0207   -0.9421 H       1  UNL1        0.2100
     45 H           2.5938   -2.4905   -3.2889 H       1  UNL1        0.2101
     46 H          -1.2108    1.4538   -2.8435 H       1  UNL1        0.1030
     47 H           4.3688    1.6734    1.8573 H       1  UNL1        0.1451
     48 H           3.0584    1.1561    2.7358 H       1  UNL1        0.1451
@<TRIPOS>BOND
     1     2     1    2
     2     3     1    1
     3     4     1    1
     4     5     1    1
     5     6     5    1
     6     7     6    2
     7     8     6    1
     8     9     6    1
     9    10     9    1
    10    11    10    2
    11    12    10    1
    12    13    10    1
    13    14    13    1
    14    15    14    1
    15    15    16    1
    16    17    15    1
    17    18    17    1
    18    18    19    1
    19    20    18    1
    20    20    21    1
    21    22    20    1
    22    22    23    1
    23    22    15    1
    24    24    22    1
    25    25    20    1
    26    26    18    1
    27    27    26   ar
    28    28    27   ar
    29    29    28   ar
    30    30    29   ar
    31    31    30    2
    32    32    30   ar
    33    32    33    1
    34    34    32   ar
    35    35    34    1
    36    36    34   ar
    37    37    36   ar
    38    37    26   ar
    39    37    29   ar
    40     3    38    1
    41     4    39    1
    42     8    40    1
    43    12    41    1
    44    14    42    1
    45    14    43    1
    46    24    44    1
    47    25    45    1
    48    27    46    1
    49    35    47    1
    50    35    48    1
