REMARK  16 active torsions:
REMARK  status: ('A' for Active; 'I' for Inactive)
REMARK    1  A    between atoms: N_3  and  C_2 
REMARK    2  A    between atoms: C_4  and  N_3 
REMARK    3  A    between atoms: C_6  and  N_3 
REMARK    4  A    between atoms: C_7  and  C_6 
REMARK    5  A    between atoms: C_8  and  C_7 
REMARK       I    between atoms: N_10  and  C_8 
REMARK    6  A    between atoms: C_11  and  N_10 
REMARK    7  A    between atoms: C_17  and  C_15 
REMARK    8  A    between atoms: C_22  and  N_19 
REMARK    9  A    between atoms: N_36  and  C_30 
REMARK   10  A    between atoms: C_41  and  C_38 
REMARK   11  A    between atoms: N_47  and  C_45 
REMARK       I    between atoms: C_48  and  N_47 
REMARK   12  A    between atoms: C_50  and  C_48 
REMARK   13  A    between atoms: C_51  and  C_50 
REMARK   14  A    between atoms: N_52  and  C_51 
REMARK   15  A    between atoms: C_53  and  N_52 
REMARK   16  A    between atoms: C_55  and  N_52 
ROOT
ATOM      1  C   UNL d   1      -4.746   3.562   2.400  0.00  0.00     0.056 A 
ATOM      2  C   UNL d   1      -4.017   4.735   2.552  0.00  0.00     0.032 A 
ATOM      3  C   UNL d   1      -3.176   5.133   1.508  0.00  0.00     0.016 A 
ATOM      4  C   UNL d   1      -3.041   4.339   0.346  0.00  0.00    -0.006 A 
ATOM      5  C   UNL d   1      -2.008   4.512  -0.591  0.00  0.00     0.027 C 
ATOM      6  C   UNL d   1      -1.737   3.508  -1.539  0.00  0.00    -0.006 C 
ATOM      7  C   UNL d   1      -0.539   3.486  -2.272  0.00  0.00     0.016 C 
ATOM      8  C   UNL d   1      -0.090   2.290  -2.820  0.00  0.00     0.032 C 
ATOM      9  C   UNL d   1      -0.841   1.118  -2.679  0.00  0.00     0.056 C 
ATOM     10  C   UNL d   1      -2.124   1.190  -2.122  0.00  0.00     0.063 C 
ATOM     11  C   UNL d   1      -2.525   2.348  -1.468  0.00  0.00     0.070 C 
ATOM     12  N   UNL d   1      -3.714   2.379  -0.865  0.00  0.00    -0.247 NA
ATOM     13  C   UNL d   1      -3.825   3.186   0.195  0.00  0.00     0.070 A 
ATOM     14  C   UNL d   1      -4.696   2.834   1.203  0.00  0.00     0.063 A 
ENDROOT
BRANCH   1  15
ATOM     15  N   UNL d   1      -5.399   2.975   3.502  0.00  0.00    -0.247 N 
ATOM     16  C   UNL d   1      -6.518   2.142   3.393  0.00  0.00     0.148 C 
ATOM     17  C   UNL d   1      -6.011   0.940   3.887  0.00  0.00     0.102 C 
ATOM     18  N   UNL d   1      -4.760   1.181   4.412  0.00  0.00    -0.158 NA
ATOM     19  N   UNL d   1      -4.690   2.498   4.567  0.00  0.00     0.010 NA
BRANCH  17  20
ATOM     20  C   UNL d   1      -6.365  -0.340   3.304  0.00  0.00    -0.003 A 
ATOM     21  C   UNL d   1      -7.645  -0.878   3.440  0.00  0.00     0.014 A 
ATOM     22  C   UNL d   1      -8.026  -1.975   2.658  0.00  0.00     0.003 A 
ATOM     23  C   UNL d   1      -7.150  -2.517   1.711  0.00  0.00     0.029 A 
ATOM     24  C   UNL d   1      -5.878  -1.967   1.562  0.00  0.00     0.035 A 
ATOM     25  C   UNL d   1      -5.481  -0.894   2.362  0.00  0.00     0.043 A 
BRANCH  24  26
ATOM     26  N   UNL d   1      -4.949  -2.477   0.638  0.00  0.00    -0.327 N 
ATOM     27  C   UNL d   1      -5.139  -2.557  -0.727  0.00  0.00     0.223 C 
ATOM     28  O   UNL d   1      -4.656  -3.474  -1.394  0.00  0.00    -0.273 OA
ATOM     29  H   UNL d   1      -4.165  -2.991   1.033  0.00  0.00     0.169 HD
BRANCH  27  30
ATOM     30  C   UNL d   1      -5.857  -1.394  -1.401  0.00  0.00     0.122 C 
BRANCH  30  31
ATOM     31  C   UNL d   1      -6.974  -1.940  -2.303  0.00  0.00     0.126 C 
BRANCH  31  32
ATOM     32  N   UNL d   1      -7.742  -0.932  -3.035  0.00  0.00    -0.413 N 
BRANCH  32  33
ATOM     33  C   UNL d   1      -7.025  -0.308  -4.143  0.00  0.00     0.112 C 
ATOM     34  C   UNL d   1      -7.885   0.589  -5.029  0.00  0.00     0.026 C 
ENDBRANCH  32  33
BRANCH  32  35
ATOM     35  C   UNL d   1      -8.621  -0.103  -2.216  0.00  0.00     0.112 C 
ATOM     36  C   UNL d   1      -8.041   1.216  -1.710  0.00  0.00     0.026 C 
ENDBRANCH  32  35
ENDBRANCH  31  32
ENDBRANCH  30  31
ENDBRANCH  27  30
ENDBRANCH  24  26
ENDBRANCH  17  20
ENDBRANCH   1  15
BRANCH   9  37
ATOM     37  N   UNL d   1      -0.136  -0.021  -2.211  0.00  0.00    -0.247 N 
ATOM     38  C   UNL d   1       0.279  -0.150  -0.878  0.00  0.00     0.148 C 
ATOM     39  C   UNL d   1       0.771  -1.448  -0.922  0.00  0.00     0.102 C 
ATOM     40  N   UNL d   1       1.366  -1.577  -2.152  0.00  0.00    -0.158 NA
ATOM     41  N   UNL d   1       0.723  -0.741  -2.981  0.00  0.00     0.010 NA
BRANCH  39  42
ATOM     42  C   UNL d   1       1.294  -2.042   0.302  0.00  0.00    -0.003 A 
ATOM     43  C   UNL d   1       0.712  -3.206   0.806  0.00  0.00     0.014 A 
ATOM     44  C   UNL d   1       0.981  -3.601   2.120  0.00  0.00     0.003 A 
ATOM     45  C   UNL d   1       1.777  -2.805   2.951  0.00  0.00     0.029 A 
ATOM     46  C   UNL d   1       2.409  -1.668   2.441  0.00  0.00     0.035 A 
ATOM     47  C   UNL d   1       2.185  -1.314   1.103  0.00  0.00     0.043 A 
BRANCH  46  48
ATOM     48  N   UNL d   1       2.831  -0.605   3.277  0.00  0.00    -0.327 N 
ATOM     49  C   UNL d   1       3.332  -0.730   4.565  0.00  0.00     0.223 C 
ATOM     50  O   UNL d   1       3.854  -1.727   5.056  0.00  0.00    -0.273 OA
ATOM     51  H   UNL d   1       2.372   0.278   3.061  0.00  0.00     0.169 HD
BRANCH  49  52
ATOM     52  C   UNL d   1       3.292   0.604   5.301  0.00  0.00     0.133 C 
BRANCH  52  53
ATOM     53  C   UNL d   1       1.928   1.035   5.873  0.00  0.00     0.281 C 
BRANCH  53  54
ATOM     54  N   UNL d   1       0.759   0.614   5.085  0.00  0.00     0.088 N 
BRANCH  54  55
ATOM     55  C   UNL d   1      -0.130   1.691   4.634  0.00  0.00     0.268 C 
ATOM     56  C   UNL d   1       0.484   2.420   3.443  0.00  0.00     0.037 C 
ENDBRANCH  54  55
BRANCH  54  57
ATOM     57  C   UNL d   1       0.030  -0.523   5.651  0.00  0.00     0.268 C 
ATOM     58  C   UNL d   1      -0.500  -0.325   7.069  0.00  0.00     0.037 C 
ENDBRANCH  54  57
ENDBRANCH  53  54
ENDBRANCH  52  53
ENDBRANCH  49  52
ENDBRANCH  46  48
ENDBRANCH  39  42
ENDBRANCH   9  37
TORSDOF 16
