@<TRIPOS>MOLECULE
3MIJ_R14_A_30
 103 109 0 0 0
SMALL
GASTEIGER

@<TRIPOS>ATOM
      1 C          -7.8851    0.5892   -5.0288 C.3     1  UNL1       -0.0524
      2 C          -7.0247   -0.3081   -4.1428 C.3     1  UNL1       -0.0039
      3 N          -7.7424   -0.9320   -3.0352 N.3     1  UNL1       -0.3024
      4 C          -8.6210   -0.1028   -2.2165 C.3     1  UNL1       -0.0039
      5 C          -8.0410    1.2155   -1.7104 C.3     1  UNL1       -0.0524
      6 C          -6.9736   -1.9396   -2.3029 C.3     1  UNL1        0.0071
      7 C          -5.8569   -1.3944   -1.4010 C.3     1  UNL1        0.0370
      8 C          -5.1392   -2.5565   -0.7265 C.2     1  UNL1        0.2184
      9 O          -4.6561   -3.4742   -1.3943 O.2     1  UNL1       -0.2754
     10 N          -4.9488   -2.4766    0.6379 N.am    1  UNL1       -0.2854
     11 C          -5.8780   -1.9671    1.5615 C.ar    1  UNL1        0.0340
     12 C          -7.1502   -2.5170    1.7109 C.ar    1  UNL1       -0.0404
     13 C          -8.0259   -1.9751    2.6581 C.ar    1  UNL1       -0.0594
     14 C          -7.6453   -0.8783    3.4403 C.ar    1  UNL1       -0.0523
     15 C          -6.3648   -0.3403    3.3041 C.ar    1  UNL1        0.0054
     16 C          -5.4806   -0.8939    2.3619 C.ar    1  UNL1       -0.0312
     17 C          -6.0112    0.9397    3.8870 C.ar    1  UNL1        0.1130
     18 C          -6.5181    2.1421    3.3925 C.ar    1  UNL1        0.0591
     19 N          -5.3988    2.9750    3.5017 N.ar    1  UNL1       -0.2194
     20 N          -4.6899    2.4975    4.5667 N.ar    1  UNL1       -0.0602
     21 N          -4.7599    1.1815    4.4125 N.ar    1  UNL1       -0.1292
     22 C          -4.7463    3.5624    2.3995 C.ar    1  UNL1        0.0691
     23 C          -4.0172    4.7351    2.5523 C.ar    1  UNL1       -0.0355
     24 C          -3.1758    5.1329    1.5081 C.ar    1  UNL1       -0.0505
     25 C          -3.0405    4.3387    0.3460 C.ar    1  UNL1        0.0011
     26 C          -2.0082    4.5120   -0.5914 C.ar    1  UNL1       -0.0434
     27 C          -1.7366    3.5078   -1.5392 C.ar    1  UNL1        0.0011
     28 C          -0.5392    3.4859   -2.2722 C.ar    1  UNL1       -0.0505
     29 C          -0.0901    2.2896   -2.8203 C.ar    1  UNL1       -0.0355
     30 C          -0.8409    1.1179   -2.6786 C.ar    1  UNL1        0.0691
     31 C          -2.1245    1.1899   -2.1215 C.ar    1  UNL1       -0.0102
     32 C          -2.5253    2.3476   -1.4683 C.ar    1  UNL1        0.0737
     33 N          -3.7141    2.3786   -0.8653 N.ar    1  UNL1       -0.2466
     34 C          -3.8246    3.1864    0.1945 C.ar    1  UNL1        0.0737
     35 C          -4.6962    2.8340    1.2032 C.ar    1  UNL1       -0.0102
     36 N          -0.1363   -0.0215   -2.2105 N.ar    1  UNL1       -0.2194
     37 C           0.2787   -0.1498   -0.8779 C.ar    1  UNL1        0.0591
     38 C           0.7715   -1.4485   -0.9223 C.ar    1  UNL1        0.1130
     39 N           1.3660   -1.5765   -2.1522 N.ar    1  UNL1       -0.1292
     40 N           0.7231   -0.7410   -2.9807 N.ar    1  UNL1       -0.0602
     41 C           1.2937   -2.0415    0.3024 C.ar    1  UNL1        0.0054
     42 C           0.7116   -3.2061    0.8057 C.ar    1  UNL1       -0.0523
     43 C           0.9805   -3.6011    2.1198 C.ar    1  UNL1       -0.0594
     44 C           1.7767   -2.8055    2.9514 C.ar    1  UNL1       -0.0404
     45 C           2.4085   -1.6681    2.4410 C.ar    1  UNL1        0.0340
     46 C           2.1848   -1.3138    1.1029 C.ar    1  UNL1       -0.0312
     47 N           2.8311   -0.6051    3.2772 N.am    1  UNL1       -0.2854
     48 C           3.3321   -0.7297    4.5654 C.2     1  UNL1        0.2184
     49 O           3.8545   -1.7274    5.0555 O.2     1  UNL1       -0.2754
     50 C           3.2921    0.6043    5.3006 C.3     1  UNL1        0.0370
     51 C           1.9276    1.0346    5.8727 C.3     1  UNL1        0.0071
     52 N           0.7595    0.6142    5.0848 N.3     1  UNL1       -0.3024
     53 C          -0.1304    1.6909    4.6341 C.3     1  UNL1       -0.0039
     54 C           0.4837    2.4202    3.4435 C.3     1  UNL1       -0.0524
     55 C           0.0300   -0.5235    5.6506 C.3     1  UNL1       -0.0039
     56 C          -0.4997   -0.3248    7.0688 C.3     1  UNL1       -0.0524
     57 H          -8.9187    0.2372   -5.1049 H       1  UNL1        0.0242
     58 H          -7.4727    0.6186   -6.0430 H       1  UNL1        0.0242
     59 H          -7.8919    1.6170   -4.6518 H       1  UNL1        0.0242
     60 H          -6.1604    0.2634   -3.7853 H       1  UNL1        0.0424
     61 H          -6.6206   -1.1001   -4.7860 H       1  UNL1        0.0424
     62 H          -8.9776   -0.6789   -1.3531 H       1  UNL1        0.0424
     63 H          -9.5308    0.1089   -2.7919 H       1  UNL1        0.0424
     64 H          -6.9728    1.3285   -1.9134 H       1  UNL1        0.0242
     65 H          -8.1819    1.2977   -0.6274 H       1  UNL1        0.0242
     66 H          -8.5625    2.0594   -2.1737 H       1  UNL1        0.0242
     67 H          -6.5435   -2.6426   -3.0277 H       1  UNL1        0.0431
     68 H          -7.6618   -2.5414   -1.6969 H       1  UNL1        0.0431
     69 H          -6.2614   -0.6986   -0.6627 H       1  UNL1        0.0371
     70 H          -5.1084   -0.8537   -1.9903 H       1  UNL1        0.0371
     71 H          -4.1655   -2.9913    1.0329 H       1  UNL1        0.1548
     72 H          -7.4678   -3.3614    1.1055 H       1  UNL1        0.0636
     73 H          -9.0091   -2.4166    2.7951 H       1  UNL1        0.0618
     74 H          -8.3150   -0.5202    4.2203 H       1  UNL1        0.0624
     75 H          -4.4903   -0.4616    2.2173 H       1  UNL1        0.0643
     76 H          -7.2992    2.3485    2.6728 H       1  UNL1        0.0853
     77 H          -4.0506    5.3085    3.4741 H       1  UNL1        0.0639
     78 H          -2.6288    6.0698    1.5988 H       1  UNL1        0.0625
     79 H          -1.3962    5.4130   -0.5662 H       1  UNL1        0.0631
     80 H           0.0938    4.3674   -2.3302 H       1  UNL1        0.0625
     81 H           0.8394    2.2651   -3.3927 H       1  UNL1        0.0639
     82 H          -2.6248    0.2586   -1.8369 H       1  UNL1        0.0660
     83 H          -5.2622    1.9114    1.0840 H       1  UNL1        0.0660
     84 H          -0.3360    0.3060   -0.1039 H       1  UNL1        0.0853
     85 H           0.0070   -3.7834    0.2091 H       1  UNL1        0.0624
     86 H           0.5290   -4.5091    2.5099 H       1  UNL1        0.0618
     87 H           2.0096   -3.1700    3.9512 H       1  UNL1        0.0636
     88 H           2.5756   -0.3632    0.7401 H       1  UNL1        0.0643
     89 H           2.3722    0.2775    3.0613 H       1  UNL1        0.1548
     90 H           3.6899    1.3799    4.6347 H       1  UNL1        0.0371
     91 H           4.0111    0.5296    6.1286 H       1  UNL1        0.0371
     92 H           1.9412    2.1274    5.9907 H       1  UNL1        0.0431
     93 H           1.8786    0.6612    6.8990 H       1  UNL1        0.0431
     94 H          -1.1018    1.2957    4.3062 H       1  UNL1        0.0424
     95 H          -0.3568    2.4028    5.4382 H       1  UNL1        0.0424
     96 H           1.5733    2.4606    3.5154 H       1  UNL1        0.0242
     97 H           0.2163    1.9429    2.4942 H       1  UNL1        0.0242
     98 H           0.1206    3.4519    3.4103 H       1  UNL1        0.0242
     99 H          -0.8091   -0.7897    4.9920 H       1  UNL1        0.0424
    100 H           0.6900   -1.3984    5.6397 H       1  UNL1        0.0424
    101 H           0.2664   -0.5985    7.8020 H       1  UNL1        0.0242
    102 H          -1.3507   -0.9896    7.2508 H       1  UNL1        0.0242
    103 H          -0.8166    0.7042    7.2679 H       1  UNL1        0.0242
@<TRIPOS>BOND
     1     2     1    1
     2     3     2    1
     3     4     3    1
     4     5     4    1
     5     6     3    1
     6     7     6    1
     7     8     7    1
     8     9     8    2
     9    10     8   am
    10    11    10    1
    11    12    11   ar
    12    13    12   ar
    13    14    13   ar
    14    15    14   ar
    15    16    15   ar
    16    16    11   ar
    17    17    15    1
    18    18    17   ar
    19    19    18   ar
    20    20    19   ar
    21    21    20   ar
    22    21    17   ar
    23    22    19    1
    24    23    22   ar
    25    24    23   ar
    26    25    24   ar
    27    26    25   ar
    28    27    26   ar
    29    28    27   ar
    30    29    28   ar
    31    30    29   ar
    32    31    30   ar
    33    32    31   ar
    34    32    27   ar
    35    33    32   ar
    36    34    33   ar
    37    34    25   ar
    38    35    34   ar
    39    35    22   ar
    40    36    30    1
    41    37    36   ar
    42    38    37   ar
    43    39    38   ar
    44    40    39   ar
    45    40    36   ar
    46    41    38    1
    47    42    41   ar
    48    43    42   ar
    49    44    43   ar
    50    45    44   ar
    51    46    45   ar
    52    46    41   ar
    53    47    45    1
    54    48    47   am
    55    49    48    2
    56    50    48    1
    57    51    50    1
    58    52    51    1
    59    53    52    1
    60    54    53    1
    61    55    52    1
    62    56    55    1
    63     1    57    1
    64     1    58    1
    65     1    59    1
    66     2    60    1
    67     2    61    1
    68     4    62    1
    69     4    63    1
    70     5    64    1
    71     5    65    1
    72     5    66    1
    73     6    67    1
    74     6    68    1
    75     7    69    1
    76     7    70    1
    77    10    71    1
    78    12    72    1
    79    13    73    1
    80    14    74    1
    81    16    75    1
    82    18    76    1
    83    23    77    1
    84    24    78    1
    85    26    79    1
    86    28    80    1
    87    29    81    1
    88    31    82    1
    89    35    83    1
    90    37    84    1
    91    42    85    1
    92    43    86    1
    93    44    87    1
    94    46    88    1
    95    47    89    1
    96    50    90    1
    97    50    91    1
    98    51    92    1
    99    51    93    1
   100    53    94    1
   101    53    95    1
   102    54    96    1
   103    54    97    1
   104    54    98    1
   105    55    99    1
   106    55   100    1
   107    56   101    1
   108    56   102    1
   109    56   103    1
