3MIJ_R14_A_30
  1228              3D

103109  0  0  0  0  0  0  0  0999 V2000
   -7.8851    0.5892   -5.0288 C   0  0  0  0  0  0  0  0  0  0  0  0
   -7.0247   -0.3081   -4.1428 C   0  0  0  0  0  0  0  0  0  0  0  0
   -7.7424   -0.9320   -3.0352 N   0  0  0  0  0  0  0  0  0  0  0  0
   -8.6210   -0.1028   -2.2165 C   0  0  0  0  0  0  0  0  0  0  0  0
   -8.0410    1.2155   -1.7104 C   0  0  0  0  0  0  0  0  0  0  0  0
   -6.9736   -1.9396   -2.3029 C   0  0  0  0  0  0  0  0  0  0  0  0
   -5.8569   -1.3944   -1.4010 C   0  0  0  0  0  0  0  0  0  0  0  0
   -5.1392   -2.5565   -0.7265 C   0  0  0  0  0  0  0  0  0  0  0  0
   -4.6561   -3.4742   -1.3943 O   0  0  0  0  0  0  0  0  0  0  0  0
   -4.9488   -2.4766    0.6379 N   0  0  0  0  0  0  0  0  0  0  0  0
   -5.8780   -1.9671    1.5615 C   0  0  0  0  0  0  0  0  0  0  0  0
   -7.1502   -2.5170    1.7109 C   0  0  0  0  0  0  0  0  0  0  0  0
   -8.0259   -1.9751    2.6581 C   0  0  0  0  0  0  0  0  0  0  0  0
   -7.6453   -0.8783    3.4403 C   0  0  0  0  0  0  0  0  0  0  0  0
   -6.3648   -0.3403    3.3041 C   0  0  0  0  0  0  0  0  0  0  0  0
   -5.4806   -0.8939    2.3619 C   0  0  0  0  0  0  0  0  0  0  0  0
   -6.0112    0.9397    3.8870 C   0  0  0  0  0  0  0  0  0  0  0  0
   -6.5181    2.1421    3.3925 C   0  0  0  0  0  0  0  0  0  0  0  0
   -5.3988    2.9750    3.5017 N   0  0  0  0  0  0  0  0  0  0  0  0
   -4.6899    2.4975    4.5667 N   0  0  0  0  0  0  0  0  0  0  0  0
   -4.7599    1.1815    4.4125 N   0  0  0  0  0  0  0  0  0  0  0  0
   -4.7463    3.5624    2.3995 C   0  0  0  0  0  0  0  0  0  0  0  0
   -4.0172    4.7351    2.5523 C   0  0  0  0  0  0  0  0  0  0  0  0
   -3.1758    5.1329    1.5081 C   0  0  0  0  0  0  0  0  0  0  0  0
   -3.0405    4.3387    0.3460 C   0  0  0  0  0  0  0  0  0  0  0  0
   -2.0082    4.5120   -0.5914 C   0  0  0  0  0  0  0  0  0  0  0  0
   -1.7366    3.5078   -1.5392 C   0  0  0  0  0  0  0  0  0  0  0  0
   -0.5392    3.4859   -2.2722 C   0  0  0  0  0  0  0  0  0  0  0  0
   -0.0901    2.2896   -2.8203 C   0  0  0  0  0  0  0  0  0  0  0  0
   -0.8409    1.1179   -2.6786 C   0  0  0  0  0  0  0  0  0  0  0  0
   -2.1245    1.1899   -2.1215 C   0  0  0  0  0  0  0  0  0  0  0  0
   -2.5253    2.3476   -1.4683 C   0  0  0  0  0  0  0  0  0  0  0  0
   -3.7141    2.3786   -0.8653 N   0  0  0  0  0  0  0  0  0  0  0  0
   -3.8246    3.1864    0.1945 C   0  0  0  0  0  0  0  0  0  0  0  0
   -4.6962    2.8340    1.2032 C   0  0  0  0  0  0  0  0  0  0  0  0
   -0.1363   -0.0215   -2.2105 N   0  0  0  0  0  0  0  0  0  0  0  0
    0.2787   -0.1498   -0.8779 C   0  0  0  0  0  0  0  0  0  0  0  0
    0.7715   -1.4485   -0.9223 C   0  0  0  0  0  0  0  0  0  0  0  0
    1.3660   -1.5765   -2.1522 N   0  0  0  0  0  0  0  0  0  0  0  0
    0.7231   -0.7410   -2.9807 N   0  0  0  0  0  0  0  0  0  0  0  0
    1.2937   -2.0415    0.3024 C   0  0  0  0  0  0  0  0  0  0  0  0
    0.7116   -3.2061    0.8057 C   0  0  0  0  0  0  0  0  0  0  0  0
    0.9805   -3.6011    2.1198 C   0  0  0  0  0  0  0  0  0  0  0  0
    1.7767   -2.8055    2.9514 C   0  0  0  0  0  0  0  0  0  0  0  0
    2.4085   -1.6681    2.4410 C   0  0  0  0  0  0  0  0  0  0  0  0
    2.1848   -1.3138    1.1029 C   0  0  0  0  0  0  0  0  0  0  0  0
    2.8311   -0.6051    3.2772 N   0  0  0  0  0  0  0  0  0  0  0  0
    3.3321   -0.7297    4.5654 C   0  0  0  0  0  0  0  0  0  0  0  0
    3.8545   -1.7274    5.0555 O   0  0  0  0  0  0  0  0  0  0  0  0
    3.2921    0.6043    5.3006 C   0  0  0  0  0  0  0  0  0  0  0  0
    1.9276    1.0346    5.8727 C   0  0  0  0  0  0  0  0  0  0  0  0
    0.7595    0.6142    5.0848 N   0  0  0  0  0  0  0  0  0  0  0  0
   -0.1304    1.6909    4.6341 C   0  0  0  0  0  0  0  0  0  0  0  0
    0.4837    2.4202    3.4435 C   0  0  0  0  0  0  0  0  0  0  0  0
    0.0300   -0.5235    5.6506 C   0  0  0  0  0  0  0  0  0  0  0  0
   -0.4997   -0.3248    7.0688 C   0  0  0  0  0  0  0  0  0  0  0  0
   -8.9187    0.2372   -5.1049 H   0  0  0  0  0  0  0  0  0  0  0  0
   -7.4727    0.6186   -6.0430 H   0  0  0  0  0  0  0  0  0  0  0  0
   -7.8919    1.6170   -4.6518 H   0  0  0  0  0  0  0  0  0  0  0  0
   -6.1604    0.2634   -3.7853 H   0  0  0  0  0  0  0  0  0  0  0  0
   -6.6206   -1.1001   -4.7860 H   0  0  0  0  0  0  0  0  0  0  0  0
   -8.9776   -0.6789   -1.3531 H   0  0  0  0  0  0  0  0  0  0  0  0
   -9.5308    0.1089   -2.7919 H   0  0  0  0  0  0  0  0  0  0  0  0
   -6.9728    1.3285   -1.9134 H   0  0  0  0  0  0  0  0  0  0  0  0
   -8.1819    1.2977   -0.6274 H   0  0  0  0  0  0  0  0  0  0  0  0
   -8.5625    2.0594   -2.1737 H   0  0  0  0  0  0  0  0  0  0  0  0
   -6.5435   -2.6426   -3.0277 H   0  0  0  0  0  0  0  0  0  0  0  0
   -7.6618   -2.5414   -1.6969 H   0  0  0  0  0  0  0  0  0  0  0  0
   -6.2614   -0.6986   -0.6627 H   0  0  0  0  0  0  0  0  0  0  0  0
   -5.1084   -0.8537   -1.9903 H   0  0  0  0  0  0  0  0  0  0  0  0
   -4.1655   -2.9913    1.0329 H   0  0  0  0  0  0  0  0  0  0  0  0
   -7.4678   -3.3614    1.1055 H   0  0  0  0  0  0  0  0  0  0  0  0
   -9.0091   -2.4166    2.7951 H   0  0  0  0  0  0  0  0  0  0  0  0
   -8.3150   -0.5202    4.2203 H   0  0  0  0  0  0  0  0  0  0  0  0
   -4.4903   -0.4616    2.2173 H   0  0  0  0  0  0  0  0  0  0  0  0
   -7.2992    2.3485    2.6728 H   0  0  0  0  0  0  0  0  0  0  0  0
   -4.0506    5.3085    3.4741 H   0  0  0  0  0  0  0  0  0  0  0  0
   -2.6288    6.0698    1.5988 H   0  0  0  0  0  0  0  0  0  0  0  0
   -1.3962    5.4130   -0.5662 H   0  0  0  0  0  0  0  0  0  0  0  0
    0.0938    4.3674   -2.3302 H   0  0  0  0  0  0  0  0  0  0  0  0
    0.8394    2.2651   -3.3927 H   0  0  0  0  0  0  0  0  0  0  0  0
   -2.6248    0.2586   -1.8369 H   0  0  0  0  0  0  0  0  0  0  0  0
   -5.2622    1.9114    1.0840 H   0  0  0  0  0  0  0  0  0  0  0  0
   -0.3360    0.3060   -0.1039 H   0  0  0  0  0  0  0  0  0  0  0  0
    0.0070   -3.7834    0.2091 H   0  0  0  0  0  0  0  0  0  0  0  0
    0.5290   -4.5091    2.5099 H   0  0  0  0  0  0  0  0  0  0  0  0
    2.0096   -3.1700    3.9512 H   0  0  0  0  0  0  0  0  0  0  0  0
    2.5756   -0.3632    0.7401 H   0  0  0  0  0  0  0  0  0  0  0  0
    2.3722    0.2775    3.0613 H   0  0  0  0  0  0  0  0  0  0  0  0
    3.6899    1.3799    4.6347 H   0  0  0  0  0  0  0  0  0  0  0  0
    4.0111    0.5296    6.1286 H   0  0  0  0  0  0  0  0  0  0  0  0
    1.9412    2.1274    5.9907 H   0  0  0  0  0  0  0  0  0  0  0  0
    1.8786    0.6612    6.8990 H   0  0  0  0  0  0  0  0  0  0  0  0
   -1.1018    1.2957    4.3062 H   0  0  0  0  0  0  0  0  0  0  0  0
   -0.3568    2.4028    5.4382 H   0  0  0  0  0  0  0  0  0  0  0  0
    1.5733    2.4606    3.5154 H   0  0  0  0  0  0  0  0  0  0  0  0
    0.2163    1.9429    2.4942 H   0  0  0  0  0  0  0  0  0  0  0  0
    0.1206    3.4519    3.4103 H   0  0  0  0  0  0  0  0  0  0  0  0
   -0.8091   -0.7897    4.9920 H   0  0  0  0  0  0  0  0  0  0  0  0
    0.6900   -1.3984    5.6397 H   0  0  0  0  0  0  0  0  0  0  0  0
    0.2664   -0.5985    7.8020 H   0  0  0  0  0  0  0  0  0  0  0  0
   -1.3507   -0.9896    7.2508 H   0  0  0  0  0  0  0  0  0  0  0  0
   -0.8166    0.7042    7.2679 H   0  0  0  0  0  0  0  0  0  0  0  0
  2  1  1  0  0  0  0
  3  2  1  0  0  0  0
  4  3  1  0  0  0  0
  5  4  1  0  0  0  0
  6  3  1  0  0  0  0
  7  6  1  0  0  0  0
  8  7  1  0  0  0  0
  9  8  2  0  0  0  0
 10  8  1  0  0  0  0
 11 10  1  0  0  0  0
 12 11  2  0  0  0  0
 13 12  1  0  0  0  0
 14 13  2  0  0  0  0
 15 14  1  0  0  0  0
 16 15  2  0  0  0  0
 16 11  1  0  0  0  0
 17 15  1  0  0  0  0
 18 17  2  0  0  0  0
 19 18  1  0  0  0  0
 20 19  1  0  0  0  0
 21 20  2  0  0  0  0
 21 17  1  0  0  0  0
 22 19  1  0  0  0  0
 23 22  1  0  0  0  0
 24 23  2  0  0  0  0
 25 24  1  0  0  0  0
 26 25  2  0  0  0  0
 27 26  1  0  0  0  0
 28 27  1  0  0  0  0
 29 28  2  0  0  0  0
 30 29  1  0  0  0  0
 31 30  2  0  0  0  0
 32 31  1  0  0  0  0
 32 27  2  0  0  0  0
 33 32  1  0  0  0  0
 34 33  2  0  0  0  0
 34 25  1  0  0  0  0
 35 34  1  0  0  0  0
 35 22  2  0  0  0  0
 36 30  1  0  0  0  0
 37 36  1  0  0  0  0
 38 37  2  0  0  0  0
 39 38  1  0  0  0  0
 40 39  2  0  0  0  0
 40 36  1  0  0  0  0
 41 38  1  0  0  0  0
 42 41  2  0  0  0  0
 43 42  1  0  0  0  0
 44 43  2  0  0  0  0
 45 44  1  0  0  0  0
 46 45  2  0  0  0  0
 46 41  1  0  0  0  0
 47 45  1  0  0  0  0
 48 47  1  0  0  0  0
 49 48  2  0  0  0  0
 50 48  1  0  0  0  0
 51 50  1  0  0  0  0
 52 51  1  0  0  0  0
 53 52  1  0  0  0  0
 54 53  1  0  0  0  0
 55 52  1  0  0  0  0
 56 55  1  0  0  0  0
  1 57  1  0  0  0  0
  1 58  1  0  0  0  0
  1 59  1  0  0  0  0
  2 60  1  0  0  0  0
  2 61  1  0  0  0  0
  4 62  1  0  0  0  0
  4 63  1  0  0  0  0
  5 64  1  0  0  0  0
  5 65  1  0  0  0  0
  5 66  1  0  0  0  0
  6 67  1  0  0  0  0
  6 68  1  0  0  0  0
  7 69  1  0  0  0  0
  7 70  1  0  0  0  0
 10 71  1  0  0  0  0
 12 72  1  0  0  0  0
 13 73  1  0  0  0  0
 14 74  1  0  0  0  0
 16 75  1  0  0  0  0
 18 76  1  0  0  0  0
 23 77  1  0  0  0  0
 24 78  1  0  0  0  0
 26 79  1  0  0  0  0
 28 80  1  0  0  0  0
 29 81  1  0  0  0  0
 31 82  1  0  0  0  0
 35 83  1  0  0  0  0
 37 84  1  0  0  0  0
 42 85  1  0  0  0  0
 43 86  1  0  0  0  0
 44 87  1  0  0  0  0
 46 88  1  0  0  0  0
 47 89  1  0  0  0  0
 50 90  1  0  0  0  0
 50 91  1  0  0  0  0
 51 92  1  0  0  0  0
 51 93  1  0  0  0  0
 53 94  1  0  0  0  0
 53 95  1  0  0  0  0
 54 96  1  0  0  0  0
 54 97  1  0  0  0  0
 54 98  1  0  0  0  0
 55 99  1  0  0  0  0
 55100  1  0  0  0  0
 56101  1  0  0  0  0
 56102  1  0  0  0  0
 56103  1  0  0  0  0
M  END
>  <energy>
306.5880736580412

$$$$
