@<TRIPOS>MOLECULE
ligands/ligand.pdb
 84 85 0 0 0
SMALL
GASTEIGER

@<TRIPOS>ATOM
      1 C          -0.4212    0.7235   -2.6246 C.3     1  UNL1        0.1022
      2 H          -0.1994    1.7944   -2.5212 H       1  UNL1        0.0636
      3 O           0.6762    0.0215   -2.0126 O.3     1  UNL1       -0.3425
      4 C           1.9032    0.0085   -2.7837 C.3     1  UNL1        0.1776
      5 H           2.5888   -0.6657   -2.2531 H       1  UNL1        0.0927
      6 O           2.5663    1.2888   -2.8710 O.3     1  UNL1       -0.3422
      7 C           3.4558    1.4935   -1.7460 C.3     1  UNL1        0.1051
      8 H           3.8814    0.5209   -1.4756 H       1  UNL1        0.0639
      9 C           4.6915    2.3350   -2.1444 C.3     1  UNL1        0.1106
     10 H           4.4320    3.2987   -2.5923 H       1  UNL1        0.0646
     11 C           5.4493    2.5504   -0.7946 C.3     1  UNL1        0.1053
     12 H           5.2732    1.7514   -0.0720 H       1  UNL1        0.0641
     13 C           4.5007    3.6811   -0.1433 C.3     1  UNL1        0.0533
     14 H           3.9752    4.1456   -0.9884 H       1  UNL1        0.0525
     15 N           4.8552    4.9081    0.5279 N.am    1  UNL1       -0.3077
     16 C           4.5801    5.2049    1.8524 C.2     1  UNL1        0.2420
     17 O           3.6892    5.9708    2.2351 O.2     1  UNL1       -0.2730
     18 C           5.5884    4.5329    2.8016 C.3     1  UNL1        0.1320
     19 H           4.6639    3.9425    2.8863 H       1  UNL1        0.0690
     20 O           5.7747    3.8954    4.0669 O.3     1  UNL1       -0.3825
     21 C           6.3447    5.8209    3.2047 C.3     1  UNL1       -0.0059
     22 C           6.7214    6.8929    2.1486 C.3     1  UNL1       -0.0041
     23 N           8.1604    7.0251    1.9783 N.3     1  UNL1       -0.3299
     24 C           3.3390    2.9232    0.4948 C.3     1  UNL1       -0.0142
     25 C           2.6184    2.0370   -0.5543 C.3     1  UNL1        0.0358
     26 H           1.7561    2.5844   -0.9592 H       1  UNL1        0.0485
     27 N           2.1632    0.8662    0.2149 N.3     1  UNL1       -0.3250
     28 O           6.8669    2.4721   -0.9142 O.3     1  UNL1       -0.3708
     29 C           7.4352    1.1591   -1.3923 C.3     1  UNL1        0.0607
     30 C           6.4896   -0.0903   -1.3786 C.3     1  UNL1        0.0194
     31 N           6.9607   -1.4770   -1.2157 N.3     1  UNL1       -0.3138
     32 C           6.0752   -2.1839   -0.2556 C.3     1  UNL1       -0.0040
     33 C           5.4172   -3.4711   -0.7651 C.3     1  UNL1       -0.0393
     34 C           4.9152   -4.3282    0.4124 C.3     1  UNL1       -0.0395
     35 C           6.0709   -4.7945    1.3052 C.3     1  UNL1       -0.0069
     36 N           5.8221   -6.1032    1.8941 N.3     1  UNL1       -0.3300
     37 O           5.4390    1.7215   -3.1818 O.3     1  UNL1       -0.3865
     38 C           1.7156   -0.6709   -4.1623 C.3     1  UNL1        0.0853
     39 H           2.1474   -1.6791   -4.0892 H       1  UNL1        0.0535
     40 N           2.4323    0.0262   -5.2406 N.3     1  UNL1       -0.3211
     41 C           0.2351   -0.8874   -4.5004 C.3     1  UNL1        0.1033
     42 H           0.1481   -1.0788   -5.5821 H       1  UNL1        0.0637
     43 O          -0.2390   -2.0623   -3.8193 O.3     1  UNL1       -0.3874
     44 C          -0.6032    0.3137   -4.1055 C.3     1  UNL1        0.1100
     45 H          -1.6502    0.0549   -4.3023 H       1  UNL1        0.0646
     46 O          -0.2753    1.4282   -4.9388 O.3     1  UNL1       -0.3866
     47 C          -1.7187    0.4144   -1.8244 C.3     1  UNL1        0.0222
     48 N          -2.7772    1.3869   -2.0972 N.3     1  UNL1       -0.3276
     49 H           4.4419    5.6871    0.0054 H       1  UNL1        0.1491
     50 H           6.1431    3.0375    3.8708 H       1  UNL1        0.2104
     51 H           7.2886    5.5020    3.6721 H       1  UNL1        0.0307
     52 H           5.7934    6.3413    4.0106 H       1  UNL1        0.0307
     53 H           6.3151    7.8635    2.4830 H       1  UNL1        0.0423
     54 H           6.3063    6.7273    1.1599 H       1  UNL1        0.0423
     55 H           8.6107    7.1524    2.8821 H       1  UNL1        0.1182
     56 H           8.3554    7.8737    1.4507 H       1  UNL1        0.1182
     57 H           3.7095    2.3536    1.3652 H       1  UNL1        0.0300
     58 H           2.6045    3.6253    0.9214 H       1  UNL1        0.0300
     59 H           1.3843    0.4621   -0.3080 H       1  UNL1        0.1185
     60 H           1.7542    1.1409    1.0954 H       1  UNL1        0.1185
     61 H           7.7487    1.3632   -2.4220 H       1  UNL1        0.0572
     62 H           8.3589    0.9402   -0.8356 H       1  UNL1        0.0572
     63 H           5.9375   -0.1485   -2.3158 H       1  UNL1        0.0446
     64 H           5.7818    0.0883   -0.5853 H       1  UNL1        0.0446
     65 H           6.8872   -1.9506   -2.1228 H       1  UNL1        0.1220
     66 H           5.2434   -1.5637    0.1004 H       1  UNL1        0.0424
     67 H           6.6968   -2.3715    0.6202 H       1  UNL1        0.0424
     68 H           6.0946   -4.0605   -1.3929 H       1  UNL1        0.0278
     69 H           4.5452   -3.2176   -1.3863 H       1  UNL1        0.0278
     70 H           4.2034   -3.7435    1.0134 H       1  UNL1        0.0278
     71 H           4.3518   -5.1820    0.0141 H       1  UNL1        0.0278
     72 H           6.2142   -4.0737    2.1186 H       1  UNL1        0.0422
     73 H           7.0055   -4.8361    0.7352 H       1  UNL1        0.0422
     74 H           5.5625   -6.7640    1.1633 H       1  UNL1        0.1182
     75 H           6.6990   -6.4535    2.2805 H       1  UNL1        0.1182
     76 H           4.9491    1.8499   -4.0081 H       1  UNL1        0.2100
     77 H           2.6114   -0.6049   -6.0314 H       1  UNL1        0.1187
     78 H           1.8284    0.7688   -5.5940 H       1  UNL1        0.1187
     79 H           0.4894   -2.4547   -3.3091 H       1  UNL1        0.2100
     80 H           0.5843    1.7782   -4.6463 H       1  UNL1        0.2100
     81 H          -1.4953    0.4328   -0.7541 H       1  UNL1        0.0448
     82 H          -2.0824   -0.5864   -2.0791 H       1  UNL1        0.0448
     83 H          -3.0449    1.8488   -1.2331 H       1  UNL1        0.1183
     84 H          -2.4653    2.1314   -2.7178 H       1  UNL1        0.1183
@<TRIPOS>BOND
     1     1     2    1
     2     3     1    1
     3     4     3    1
     4     4     5    1
     5     6     4    1
     6     7     6    1
     7     7     8    1
     8     9     7    1
     9     9    10    1
    10    11     9    1
    11    11    12    1
    12    13    11    1
    13    13    14    1
    14    15    13    1
    15    16    15   am
    16    17    16    2
    17    18    16    1
    18    18    19    1
    19    20    18    1
    20    21    18    1
    21    22    21    1
    22    23    22    1
    23    24    13    1
    24    25    24    1
    25    25    26    1
    26    25     7    1
    27    27    25    1
    28    28    11    1
    29    29    28    1
    30    30    29    1
    31    31    30    1
    32    32    31    1
    33    33    32    1
    34    34    33    1
    35    35    34    1
    36    36    35    1
    37    37     9    1
    38    38     4    1
    39    38    39    1
    40    40    38    1
    41    41    38    1
    42    41    42    1
    43    43    41    1
    44    44    41    1
    45    44    45    1
    46    44     1    1
    47    46    44    1
    48    47     1    1
    49    48    47    1
    50    15    49    1
    51    20    50    1
    52    21    51    1
    53    21    52    1
    54    22    53    1
    55    22    54    1
    56    23    55    1
    57    23    56    1
    58    24    57    1
    59    24    58    1
    60    27    59    1
    61    27    60    1
    62    29    61    1
    63    29    62    1
    64    30    63    1
    65    30    64    1
    66    31    65    1
    67    32    66    1
    68    32    67    1
    69    33    68    1
    70    33    69    1
    71    34    70    1
    72    34    71    1
    73    35    72    1
    74    35    73    1
    75    36    74    1
    76    36    75    1
    77    37    76    1
    78    40    77    1
    79    40    78    1
    80    43    79    1
    81    46    80    1
    82    47    81    1
    83    47    82    1
    84    48    83    1
    85    48    84    1
