REMARK  24 active torsions:
REMARK  status: ('A' for Active; 'I' for Inactive)
REMARK    1  A    between atoms: C_36  and  C_1 
REMARK    2  A    between atoms: O_4  and  C_3 
REMARK    3  A    between atoms: C_5  and  O_4 
REMARK    4  A    between atoms: O_29  and  C_6 
REMARK    5  A    between atoms: O_20  and  C_7 
REMARK    6  A    between atoms: N_9  and  C_8 
REMARK       I    between atoms: C_10  and  N_9 
REMARK    7  A    between atoms: C_12  and  C_10 
REMARK    8  A    between atoms: O_13  and  C_12 
REMARK    9  A    between atoms: C_14  and  C_12 
REMARK   10  A    between atoms: C_15  and  C_14 
REMARK   11  A    between atoms: N_16  and  C_15 
REMARK   12  A    between atoms: N_19  and  C_18 
REMARK   13  A    between atoms: C_21  and  O_20 
REMARK   14  A    between atoms: C_22  and  C_21 
REMARK   15  A    between atoms: N_23  and  C_22 
REMARK   16  A    between atoms: C_24  and  N_23 
REMARK   17  A    between atoms: C_25  and  C_24 
REMARK   18  A    between atoms: C_26  and  C_25 
REMARK   19  A    between atoms: C_27  and  C_26 
REMARK   20  A    between atoms: N_28  and  C_27 
REMARK   21  A    between atoms: N_31  and  C_30 
REMARK   22  A    between atoms: O_33  and  C_32 
REMARK   23  A    between atoms: O_35  and  C_34 
REMARK   24  A    between atoms: N_37  and  C_36 
ROOT
ATOM      1  C   UNL d   1       3.456   1.494  -1.746  0.00  0.00     0.189 C 
ATOM      2  C   UNL d   1       4.691   2.335  -2.144  0.00  0.00     0.179 C 
ATOM      3  C   UNL d   1       5.449   2.550  -0.795  0.00  0.00     0.170 C 
ATOM      4  C   UNL d   1       4.501   3.681  -0.143  0.00  0.00     0.096 C 
ATOM      5  C   UNL d   1       3.339   2.923   0.495  0.00  0.00     0.060 C 
ATOM      6  C   UNL d   1       2.618   2.037  -0.554  0.00  0.00     0.251 C 
ENDROOT
BRANCH   1   7
ATOM      7  O   UNL d   1       2.566   1.289  -2.871  0.00  0.00    -0.349 OA
BRANCH   7   8
ATOM      8  C   UNL d   1       1.903   0.009  -2.784  0.00  0.00     0.296 C 
ATOM      9  O   UNL d   1       0.676   0.021  -2.013  0.00  0.00    -0.349 OA
ATOM     10  C   UNL d   1      -0.421   0.724  -2.625  0.00  0.00     0.183 C 
ATOM     11  C   UNL d   1      -0.603   0.314  -4.106  0.00  0.00     0.179 C 
ATOM     12  C   UNL d   1       0.235  -0.887  -4.500  0.00  0.00     0.187 C 
ATOM     13  C   UNL d   1       1.716  -0.671  -4.162  0.00  0.00     0.303 C 
BRANCH  10  14
ATOM     14  C   UNL d   1      -1.719   0.414  -1.824  0.00  0.00     0.301 C 
BRANCH  14  15
ATOM     15  N   UNL d   1      -2.777   1.387  -2.097  0.00  0.00     0.080 N 
ATOM     16  H   UNL d   1      -3.045   1.849  -1.233  0.00  0.00     0.312 HD
ATOM     17  H   UNL d   1      -2.465   2.131  -2.718  0.00  0.00     0.312 HD
ENDBRANCH  14  15
ENDBRANCH  10  14
BRANCH  11  18
ATOM     18  O   UNL d   1      -0.275   1.428  -4.939  0.00  0.00    -0.390 OA
ATOM     19  H   UNL d   1       0.584   1.778  -4.646  0.00  0.00     0.210 HD
ENDBRANCH  11  18
BRANCH  12  20
ATOM     20  O   UNL d   1      -0.239  -2.062  -3.819  0.00  0.00    -0.391 OA
ATOM     21  H   UNL d   1       0.489  -2.455  -3.309  0.00  0.00     0.210 HD
ENDBRANCH  12  20
BRANCH  13  22
ATOM     22  N   UNL d   1       2.432   0.026  -5.241  0.00  0.00     0.090 N 
ATOM     23  H   UNL d   1       2.611  -0.605  -6.031  0.00  0.00     0.313 HD
ATOM     24  H   UNL d   1       1.828   0.769  -5.594  0.00  0.00     0.313 HD
ENDBRANCH  13  22
ENDBRANCH   7   8
ENDBRANCH   1   7
BRANCH   2  25
ATOM     25  O   UNL d   1       5.439   1.722  -3.182  0.00  0.00    -0.390 OA
ATOM     26  H   UNL d   1       4.949   1.850  -4.008  0.00  0.00     0.210 HD
ENDBRANCH   2  25
BRANCH   6  27
ATOM     27  N   UNL d   1       2.163   0.866   0.215  0.00  0.00     0.085 N 
ATOM     28  H   UNL d   1       1.384   0.462  -0.308  0.00  0.00     0.313 HD
ATOM     29  H   UNL d   1       1.754   1.141   1.095  0.00  0.00     0.313 HD
ENDBRANCH   6  27
BRANCH   3  30
ATOM     30  O   UNL d   1       6.867   2.472  -0.914  0.00  0.00    -0.380 OA
BRANCH  30  31
ATOM     31  C   UNL d   1       7.435   1.159  -1.392  0.00  0.00     0.198 C 
BRANCH  31  32
ATOM     32  C   UNL d   1       6.490  -0.090  -1.379  0.00  0.00     0.295 C 
BRANCH  32  33
ATOM     33  N   UNL d   1       6.961  -1.477  -1.216  0.00  0.00     0.085 N 
ATOM     34  H   UNL d   1       6.887  -1.951  -2.123  0.00  0.00     0.315 HD
BRANCH  33  35
ATOM     35  C   UNL d   1       6.075  -2.184  -0.256  0.00  0.00     0.270 C 
BRANCH  35  36
ATOM     36  C   UNL d   1       5.417  -3.471  -0.765  0.00  0.00     0.032 C 
BRANCH  36  37
ATOM     37  C   UNL d   1       4.915  -4.328   0.412  0.00  0.00     0.031 C 
BRANCH  37  38
ATOM     38  C   UNL d   1       6.071  -4.795   1.305  0.00  0.00     0.267 C 
BRANCH  38  39
ATOM     39  N   UNL d   1       5.822  -6.103   1.894  0.00  0.00     0.078 N 
ATOM     40  H   UNL d   1       5.562  -6.764   1.163  0.00  0.00     0.312 HD
ATOM     41  H   UNL d   1       6.699  -6.454   2.280  0.00  0.00     0.312 HD
ENDBRANCH  38  39
ENDBRANCH  37  38
ENDBRANCH  36  37
ENDBRANCH  35  36
ENDBRANCH  33  35
ENDBRANCH  32  33
ENDBRANCH  31  32
ENDBRANCH  30  31
ENDBRANCH   3  30
BRANCH   4  42
ATOM     42  N   UNL d   1       4.855   4.908   0.528  0.00  0.00    -0.254 NA
ATOM     43  C   UNL d   1       4.580   5.205   1.852  0.00  0.00     0.226 C 
ATOM     44  O   UNL d   1       3.689   5.971   2.235  0.00  0.00    -0.277 OA
ATOM     45  H   UNL d   1       4.442   5.687   0.005  0.00  0.00     0.131 HD
BRANCH  43  46
ATOM     46  C   UNL d   1       5.588   4.533   2.802  0.00  0.00     0.205 C 
BRANCH  46  47
ATOM     47  O   UNL d   1       5.775   3.895   4.067  0.00  0.00    -0.387 OA
ATOM     48  H   UNL d   1       6.143   3.038   3.871  0.00  0.00     0.210 HD
ENDBRANCH  46  47
BRANCH  46  49
ATOM     49  C   UNL d   1       6.345   5.821   3.205  0.00  0.00     0.070 C 
BRANCH  49  50
ATOM     50  C   UNL d   1       6.721   6.893   2.149  0.00  0.00     0.269 C 
BRANCH  50  51
ATOM     51  N   UNL d   1       8.160   7.025   1.978  0.00  0.00     0.078 N 
ATOM     52  H   UNL d   1       8.611   7.152   2.882  0.00  0.00     0.312 HD
ATOM     53  H   UNL d   1       8.355   7.874   1.451  0.00  0.00     0.312 HD
ENDBRANCH  50  51
ENDBRANCH  49  50
ENDBRANCH  46  49
ENDBRANCH  43  46
ENDBRANCH   4  42
TORSDOF 24
