@<TRIPOS>MOLECULE
2G9C_3AY_A_91
 16 16 0 0 0
SMALL
GASTEIGER

@<TRIPOS>ATOM
      1 N          -2.4239   -1.3153    0.2978 N.pl3   1  UNL1       -0.3430
      2 C          -1.1664   -0.7086    0.0952 C.ar    1  UNL1        0.1230
      3 C          -1.1096    0.6568   -0.1425 C.ar    1  UNL1        0.0176
      4 C           0.1442    1.2185   -0.3280 C.ar    1  UNL1        0.1230
      5 N           1.2678    0.4656   -0.3165 N.ar    1  UNL1       -0.2000
      6 C           1.1442   -0.8481   -0.0273 C.ar    1  UNL1        0.2159
      7 N          -0.0451   -1.4654    0.1435 N.ar    1  UNL1       -0.2000
      8 N           2.3151   -1.6300    0.0136 N.pl3   1  UNL1       -0.3274
      9 N           0.2487    2.6005   -0.5988 N.pl3   1  UNL1       -0.3430
     10 H          -3.1287   -0.9394   -0.3323 H       1  UNL1        0.1437
     11 H          -2.3547   -2.3243    0.1835 H       1  UNL1        0.1437
     12 H          -2.0090    1.2656   -0.1714 H       1  UNL1        0.0686
     13 H           3.1404   -1.0359   -0.0088 H       1  UNL1        0.1452
     14 H           2.3330   -2.2330    0.8330 H       1  UNL1        0.1452
     15 H           1.1508    2.9341   -0.2650 H       1  UNL1        0.1437
     16 H          -0.4947    3.1298   -0.1482 H       1  UNL1        0.1437
@<TRIPOS>BOND
     1     2     1    1
     2     3     2   ar
     3     4     3   ar
     4     5     4   ar
     5     6     5   ar
     6     7     6   ar
     7     7     2   ar
     8     8     6    1
     9     9     4    1
    10     1    10    1
    11     1    11    1
    12     3    12    1
    13     8    13    1
    14     8    14    1
    15     9    15    1
    16     9    16    1
