REMARK  3 active torsions:
REMARK  status: ('A' for Active; 'I' for Inactive)
REMARK    1  A    between atoms: C_2  and  N_1 
REMARK    2  A    between atoms: N_9  and  C_4 
REMARK    3  A    between atoms: N_8  and  C_6 
ROOT
ATOM      1  C   UNL d   1      -1.166  -0.709   0.095  0.00  0.00     0.107 A 
ATOM      2  C   UNL d   1      -1.110   0.657  -0.142  0.00  0.00     0.088 A 
ATOM      3  C   UNL d   1       0.144   1.218  -0.328  0.00  0.00     0.107 A 
ATOM      4  N   UNL d   1       1.268   0.466  -0.317  0.00  0.00    -0.207 NA
ATOM      5  C   UNL d   1       1.144  -0.848  -0.027  0.00  0.00     0.202 A 
ATOM      6  N   UNL d   1      -0.045  -1.465   0.143  0.00  0.00    -0.207 NA
ENDROOT
BRANCH   1   7
ATOM      7  N   UNL d   1      -2.424  -1.315   0.298  0.00  0.00    -0.287 NA
ATOM      8  H   UNL d   1      -3.129  -0.939  -0.332  0.00  0.00     0.125 HD
ATOM      9  H   UNL d   1      -2.355  -2.324   0.183  0.00  0.00     0.125 HD
ENDBRANCH   1   7
BRANCH   3  10
ATOM     10  N   UNL d   1       0.249   2.600  -0.599  0.00  0.00    -0.287 NA
ATOM     11  H   UNL d   1       1.151   2.934  -0.265  0.00  0.00     0.125 HD
ATOM     12  H   UNL d   1      -0.495   3.130  -0.148  0.00  0.00     0.125 HD
ENDBRANCH   3  10
BRANCH   5  13
ATOM     13  N   UNL d   1       2.315  -1.630   0.014  0.00  0.00    -0.271 NA
ATOM     14  H   UNL d   1       3.140  -1.036  -0.009  0.00  0.00     0.127 HD
ATOM     15  H   UNL d   1       2.333  -2.233   0.833  0.00  0.00     0.127 HD
ENDBRANCH   5  13
TORSDOF 3
