@<TRIPOS>MOLECULE
2F4T_AB9_B_1
 35 36 0 0 0
SMALL
GASTEIGER
****
Coordinates from PDB:2F4T:B:1 Model:1 without hydrogens
@<TRIPOS>ATOM
      1 C           2.8240   -5.7880   25.8520 C.3     1  UNL1        0.2561
      2 C           3.6860   -9.5740   29.7430 C.3     1  UNL1        0.1265
      3 C           2.3500   -4.3110   26.0050 C.3     1  UNL1        0.1807
      4 C           2.5780   -9.8780   28.6690 C.3     1  UNL1        0.0458
      5 C           3.2950  -11.4640   31.5580 C.2     1  UNL1        0.2719
      6 C           4.2680  -12.6220   31.5810 C.3     1  UNL1        0.2305
      7 C           3.8390  -13.5630   32.7090 C.3     1  UNL1        0.0630
      8 C           4.9420  -13.9510   33.7080 C.3     1  UNL1        0.1124
      9 C           7.0880   -8.1710   30.5400 C.3     1  UNL1        0.1610
     10 C           6.9730   -7.6830   31.9760 C.3     1  UNL1        0.1207
     11 C           0.7880   -4.2360   25.9220 C.3     1  UNL1        0.2070
     12 C           1.9420   -8.5920   28.1230 C.3     1  UNL1        0.1234
     13 C           7.1470   -4.0360   33.3290 C.3     1  UNL1        0.1280
     14 C           6.9690   -5.5780   33.4550 C.3     1  UNL1        0.1092
     15 O           2.3290   -6.4920   27.0380 O.3     1  UNL1       -0.3277
     16 N           2.8210   -3.7510   27.2500 N.3     1  UNL1       -0.1248
     17 O           0.3370   -2.9020   26.0540 O.3     1  UNL1       -0.2186
     18 C           0.3550   -4.8240   24.5750 C.3     1  UNL1        0.2122
     19 O          -1.0550   -4.7750   24.4290 O.3     1  UNL1       -0.2177
     20 C           0.8610   -6.2900   24.4490 C.3     1  UNL1        0.1696
     21 O           2.2950   -6.3590   24.5920 O.3     1  UNL1       -0.3276
     22 C           0.4910   -6.8940   23.1470 C.3     1  UNL1        0.1415
     23 N           0.9570   -8.1610   23.0900 N.3     1  UNL1       -0.1286
     24 N           4.2620  -10.8410   30.2180 N.am    1  UNL1       -0.2024
     25 N           0.9470   -8.8980   27.1000 N.3     1  UNL1       -0.1302
     26 C           2.9980   -7.6930   27.5300 C.3     1  UNL1        0.1680
     27 C           4.1050   -7.3560   28.6190 C.3     1  UNL1        0.2090
     28 O           5.1040   -6.4820   28.0130 O.3     1  UNL1       -0.2178
     29 C           4.7680   -8.6940   29.0980 C.3     1  UNL1        0.1678
     30 O           5.7640   -8.4300   30.0340 O.3     1  UNL1       -0.3503
     31 N           7.0570   -6.2120   32.1090 N.3     1  UNL1       -0.2138
     32 N           7.0700   -3.2810   34.6950 N.3     1  UNL1       -0.1298
     33 O           2.4240  -11.1260   32.0740 O.2     1  UNL1       -0.2706
     34 N           4.3610  -14.8440   34.7150 N.3     1  UNL1       -0.1313
     35 O           4.1810  -13.3740   30.3990 O.3     1  UNL1       -0.2131
@<TRIPOS>BOND
     1     1     3    1
     2     1    15    1
     3     1    21    1
     4     2     4    1
     5     2    24    1
     6     2    29    1
     7     3    11    1
     8     3    16    1
     9     4    12    1
    10     5     6    1
    11     5    24   am
    12     5    33    2
    13     6     7    1
    14     6    35    1
    15     7     8    1
    16     8    34    1
    17     9    10    1
    18     9    30    1
    19    10    31    1
    20    11    17    1
    21    11    18    1
    22    12    25    1
    23    12    26    1
    24    13    14    1
    25    13    32    1
    26    14    31    1
    27    18    19    1
    28    18    20    1
    29    20    21    1
    30    20    22    1
    31    22    23    1
    32    26    15    1
    33    26    27    1
    34    27    28    1
    35    27    29    1
    36    29    30    1
