2F4T_AB9_B_1
 OpenBabel10091713573D
Coordinates from PDB:2F4T:B:1 Model:1 without hydrogens
 35 36  0  0  0  0  0  0  0  0999 V2000
    2.8240   -5.7880   25.8520 C   0  0  1  0  0  0  0  0  0  0  0  0
    3.6860   -9.5740   29.7430 C   0  0  1  0  0  0  0  0  0  0  0  0
    2.3500   -4.3110   26.0050 C   0  0  1  0  0  0  0  0  0  0  0  0
    2.5780   -9.8780   28.6690 C   0  0  0  0  0  0  0  0  0  0  0  0
    3.2950  -11.4640   31.5580 C   0  0  0  0  0  0  0  0  0  0  0  0
    4.2680  -12.6220   31.5810 C   0  0  1  0  0  0  0  0  0  0  0  0
    3.8390  -13.5630   32.7090 C   0  0  0  0  0  0  0  0  0  0  0  0
    4.9420  -13.9510   33.7080 C   0  0  0  0  0  0  0  0  0  0  0  0
    7.0880   -8.1710   30.5400 C   0  0  0  0  0  0  0  0  0  0  0  0
    6.9730   -7.6830   31.9760 C   0  0  0  0  0  0  0  0  0  0  0  0
    0.7880   -4.2360   25.9220 C   0  0  1  0  0  0  0  0  0  0  0  0
    1.9420   -8.5920   28.1230 C   0  0  2  0  0  0  0  0  0  0  0  0
    7.1470   -4.0360   33.3290 C   0  0  0  0  0  0  0  0  0  0  0  0
    6.9690   -5.5780   33.4550 C   0  0  0  0  0  0  0  0  0  0  0  0
    2.3290   -6.4920   27.0380 O   0  0  0  0  0  0  0  0  0  0  0  0
    2.8210   -3.7510   27.2500 N   0  0  0  0  0  0  0  0  0  0  0  0
    0.3370   -2.9020   26.0540 O   0  0  0  0  0  0  0  0  0  0  0  0
    0.3550   -4.8240   24.5750 C   0  0  2  0  0  0  0  0  0  0  0  0
   -1.0550   -4.7750   24.4290 O   0  0  0  0  0  0  0  0  0  0  0  0
    0.8610   -6.2900   24.4490 C   0  0  2  0  0  0  0  0  0  0  0  0
    2.2950   -6.3590   24.5920 O   0  0  0  0  0  0  0  0  0  0  0  0
    0.4910   -6.8940   23.1470 C   0  0  0  0  0  0  0  0  0  0  0  0
    0.9570   -8.1610   23.0900 N   0  0  0  0  0  0  0  0  0  0  0  0
    4.2620  -10.8410   30.2180 N   0  0  0  0  0  0  0  0  0  0  0  0
    0.9470   -8.8980   27.1000 N   0  0  0  0  0  0  0  0  0  0  0  0
    2.9980   -7.6930   27.5300 C   0  0  1  0  0  0  0  0  0  0  0  0
    4.1050   -7.3560   28.6190 C   0  0  2  0  0  0  0  0  0  0  0  0
    5.1040   -6.4820   28.0130 O   0  0  0  0  0  0  0  0  0  0  0  0
    4.7680   -8.6940   29.0980 C   0  0  1  0  0  0  0  0  0  0  0  0
    5.7640   -8.4300   30.0340 O   0  0  0  0  0  0  0  0  0  0  0  0
    7.0570   -6.2120   32.1090 N   0  0  0  0  0  0  0  0  0  0  0  0
    7.0700   -3.2810   34.6950 N   0  0  0  0  0  0  0  0  0  0  0  0
    2.4240  -11.1260   32.0740 O   0  0  0  0  0  0  0  0  0  0  0  0
    4.3610  -14.8440   34.7150 N   0  0  0  0  0  0  0  0  0  0  0  0
    4.1810  -13.3740   30.3990 O   0  0  0  0  0  0  0  0  0  0  0  0
  1  3  1  0  0  0  0
  1 15  1  1  0  0  0
  1 21  1  0  0  0  0
  2  4  1  0  0  0  0
  2 24  1  6  0  0  0
  2 29  1  0  0  0  0
  3 11  1  0  0  0  0
  3 16  1  1  0  0  0
  4 12  1  0  0  0  0
  5  6  1  0  0  0  0
  5 24  1  0  0  0  0
  5 33  2  0  0  0  0
  6  7  1  0  0  0  0
  6 35  1  6  0  0  0
  7  8  1  0  0  0  0
  8 34  1  0  0  0  0
  9 10  1  0  0  0  0
  9 30  1  0  0  0  0
 10 31  1  0  0  0  0
 11 17  1  6  0  0  0
 11 18  1  0  0  0  0
 12 25  1  6  0  0  0
 12 26  1  0  0  0  0
 13 14  1  0  0  0  0
 13 32  1  0  0  0  0
 14 31  1  0  0  0  0
 18 19  1  1  0  0  0
 18 20  1  0  0  0  0
 20 21  1  0  0  0  0
 20 22  1  6  0  0  0
 22 23  1  0  0  0  0
 26 15  1  1  0  0  0
 26 27  1  0  0  0  0
 27 28  1  6  0  0  0
 27 29  1  0  0  0  0
 29 30  1  1  0  0  0
A    1
C11
A    2
C12
A    3
C21
A    4
C22
A    5
C23
A    6
C24
A    7
C25
A    8
C26
A    9
C29
A   10
C30
A   11
C31
A   12
C32
A   13
C33
A   14
C35
A   15
O11
A   16
N21
A   17
O31
A   18
C41
A   19
O41
A   20
C51
A   21
O51
A   22
C61
A   23
N61
A   24
N12
A   25
N32
A   26
C42
A   27
C52
A   28
O52
A   29
C62
A   30
O62
A   31
N31
A   32
N34
A   33
O36
A   34
N27
A   35
O28
M  END
>  <InstanceId>
2F4T_AB9_B_1

>  <ChemCompId>
AB9

>  <PdbId>
2F4T

>  <ChainId>
B

>  <ResidueNumber>
1

>  <InsertionCode>


>  <Model>
1

>  <AltIds>


>  <MissingHeavyAtoms>
0

>  <ObservedFormula>
C20 N7 O8

>  <Name>
(2R)-4-AMINO-N-{(1R,2S,3R,4R,5S)-5-AMINO-2-{2-[(2-AMINOETHYL)AMINO]ETHOXY}-4-[(2,6-DIAMINO-2,6-DIDEOXY-ALPHA-D-GLUCOPYRANOSYL)OXY]-3-HYDROXYCYCLOHEXYL}-2-HYDROXYBUTANAMIDE

>  <SystematicName>
(2R)-4-amino-N-[(1R,2S,3R,4R,5S)-5-amino-4-[(2R,3R,4R,5S,6R)-3-amino-6-(aminomethyl)-4,5-dihydroxy-oxan-2-yl]oxy-2-[2-(2-aminoethylamino)ethoxy]-3-hydroxy-cyclohexyl]-2-hydroxy-butanamide

>  <Synonyms>


>  <Type>
NON-POLYMER

>  <Formula>
C20 H43 N7 O8

>  <MolecularWeight>
509.598

>  <ModifiedDate>
2011-06-04

>  <Parent>


>  <OneLetterCode>


>  <SubcomponentList>


>  <AmbiguousFlag>
N

>  <InChI>
InChI=1S/C20H43N7O8/c21-2-1-11(28)19(32)27-10-7-9(24)17(16(31)18(10)33-6-5-26-4-3-22)35-20-13(25)15(30)14(29)12(8-23)34-20/h9-18,20,26,28-31H,1-8,21-25H2,(H,27,32)/t9-,10+,11+,12+,13+,14+,15+,16-,17+,18-,20+/m0/s1

>  <InChIKey>
OGRDTONULPXNRP-HSDDYVLRSA-N

>  <SMILES>
C1[C@@H]([C@H]([C@@H]([C@H]([C@@H]1NC(=O)[C@@H](CCN)O)OCCNCCN)O)O[C@@H]2[C@@H]([C@H]([C@@H]([C@H](O2)CN)O)O)N)N

$$$$
