1EHT_TEP_A_34
 OpenBabel03221816513D

 21 22  0  0  0  0  0  0  0  0999 V2000
    1.1334    0.0049   -0.0314 C   0  0  0  0  0  0  0  0  0  0  0  0
    2.5832    0.0094   -0.0258 N   0  0  0  0  0  0  0  0  0  0  0  0
    3.2517    1.2517   -0.0218 C   0  0  0  0  0  0  0  0  0  0  0  0
    2.6289    2.3172   -0.0238 O   0  0  0  0  0  0  0  0  0  0  0  0
    4.6502    1.2223   -0.0153 N   0  0  0  0  0  0  0  0  0  0  0  0
    5.4158    2.4556   -0.0102 C   0  0  0  0  0  0  0  0  0  0  0  0
    5.2981    0.0110   -0.0123 C   0  0  0  0  0  0  0  0  0  0  0  0
    4.6130   -1.1623   -0.0166 C   0  0  0  0  0  0  0  0  0  0  0  0
    3.1996   -1.2463   -0.0242 C   0  0  0  0  0  0  0  0  0  0  0  0
    2.6013   -2.3176   -0.0284 O   0  0  0  0  0  0  0  0  0  0  0  0
    5.5631   -2.1404   -0.0118 N   0  0  0  0  0  0  0  0  0  0  0  0
    5.3964   -3.1387   -0.0130 H   0  0  0  0  0  0  0  0  0  0  0  0
    6.7784   -1.5053   -0.0041 C   0  0  0  0  0  0  0  0  0  0  0  0
    6.6446   -0.1934   -0.0046 N   0  0  0  0  0  0  0  0  0  0  0  0
    0.7043    1.0094   -0.0324 H   0  0  0  0  0  0  0  0  0  0  0  0
    0.7778   -0.5320    0.8543 H   0  0  0  0  0  0  0  0  0  0  0  0
    0.7844   -0.5311   -0.9202 H   0  0  0  0  0  0  0  0  0  0  0  0
    4.7698    3.3373   -0.0158 H   0  0  0  0  0  0  0  0  0  0  0  0
    6.0532    2.4842   -0.8996 H   0  0  0  0  0  0  0  0  0  0  0  0
    6.0392    2.4852    0.8891 H   0  0  0  0  0  0  0  0  0  0  0  0
    7.7152   -2.0477    0.0017 H   0  0  0  0  0  0  0  0  0  0  0  0
  1  2  1  0  0  0  0
  1 15  1  0  0  0  0
  1 16  1  0  0  0  0
  1 17  1  0  0  0  0
  2  3  1  0  0  0  0
  2  9  1  0  0  0  0
  3  4  2  0  0  0  0
  3  5  1  0  0  0  0
  5  6  1  0  0  0  0
  5  7  1  0  0  0  0
  6 18  1  0  0  0  0
  6 19  1  0  0  0  0
  6 20  1  0  0  0  0
  7  8  2  0  0  0  0
  7 14  1  0  0  0  0
  8  9  1  0  0  0  0
  8 11  1  0  0  0  0
  9 10  2  0  0  0  0
 11 12  1  0  0  0  0
 11 13  1  0  0  0  0
 13 14  2  0  0  0  0
 13 21  1  0  0  0  0
M  END
$$$$
