@<TRIPOS>MOLECULE
1EHT_TEP_A_34
 21 22 0 0 0
SMALL
GASTEIGER

@<TRIPOS>ATOM
      1 C           1.1334    0.0049   -0.0314 C.3     1  UNL1        0.0196
      2 N           2.5832    0.0094   -0.0258 N.ar    1  UNL1       -0.2622
      3 C           3.2517    1.2517   -0.0218 C.ar    1  UNL1        0.3331
      4 O           2.6289    2.3172   -0.0238 O.2     1  UNL1       -0.2462
      5 N           4.6502    1.2223   -0.0153 N.ar    1  UNL1       -0.2796
      6 C           5.4158    2.4556   -0.0102 C.3     1  UNL1        0.0181
      7 C           5.2981    0.0110   -0.0123 C.ar    1  UNL1        0.1676
      8 C           4.6130   -1.1623   -0.0166 C.ar    1  UNL1        0.1488
      9 C           3.1996   -1.2463   -0.0242 C.ar    1  UNL1        0.2820
     10 O           2.6013   -2.3176   -0.0284 O.2     1  UNL1       -0.2652
     11 N           5.5631   -2.1404   -0.0118 N.ar    1  UNL1       -0.3389
     12 H           5.3964   -3.1387   -0.0130 H       1  UNL1        0.1670
     13 C           6.7784   -1.5053   -0.0041 C.ar    1  UNL1        0.0963
     14 N           6.6446   -0.1934   -0.0046 N.ar    1  UNL1       -0.2179
     15 H           0.7043    1.0094   -0.0324 H       1  UNL1        0.0458
     16 H           0.7778   -0.5320    0.8543 H       1  UNL1        0.0458
     17 H           0.7844   -0.5311   -0.9202 H       1  UNL1        0.0458
     18 H           4.7698    3.3373   -0.0158 H       1  UNL1        0.0458
     19 H           6.0532    2.4842   -0.8996 H       1  UNL1        0.0458
     20 H           6.0392    2.4852    0.8891 H       1  UNL1        0.0458
     21 H           7.7152   -2.0477    0.0017 H       1  UNL1        0.1027
@<TRIPOS>BOND
     1     1     2    1
     2     1    15    1
     3     1    16    1
     4     1    17    1
     5     2     3   ar
     6     2     9   ar
     7     3     4    2
     8     3     5   ar
     9     5     6    1
    10     5     7   ar
    11     6    18    1
    12     6    19    1
    13     6    20    1
    14     7     8   ar
    15     7    14   ar
    16     8     9   ar
    17     8    11   ar
    18     9    10    2
    19    11    12    1
    20    11    13   ar
    21    13    14   ar
    22    13    21    1
