REMARK  0 active torsions:
REMARK  status: ('A' for Active; 'I' for Inactive)
ROOT
ATOM      1  C   UNL d   1       1.133   0.005  -0.031  0.00  0.00     0.164 C 
ATOM      2  N   UNL d   1       2.583   0.009  -0.026  0.00  0.00    -0.269 N 
ATOM      3  C   UNL d   1       3.252   1.252  -0.022  0.00  0.00     0.332 A 
ATOM      4  O   UNL d   1       2.629   2.317  -0.024  0.00  0.00    -0.246 OA
ATOM      5  N   UNL d   1       4.650   1.222  -0.015  0.00  0.00    -0.286 N 
ATOM      6  C   UNL d   1       5.416   2.456  -0.010  0.00  0.00     0.163 C 
ATOM      7  C   UNL d   1       5.298   0.011  -0.012  0.00  0.00     0.167 A 
ATOM      8  C   UNL d   1       4.613  -1.162  -0.017  0.00  0.00     0.149 A 
ATOM      9  C   UNL d   1       3.200  -1.246  -0.024  0.00  0.00     0.281 A 
ATOM     10  O   UNL d   1       2.601  -2.318  -0.028  0.00  0.00    -0.265 OA
ATOM     11  N   UNL d   1       5.563  -2.140  -0.012  0.00  0.00    -0.343 N 
ATOM     12  H   UNL d   1       5.396  -3.139  -0.013  0.00  0.00     0.167 HD
ATOM     13  C   UNL d   1       6.778  -1.505  -0.004  0.00  0.00     0.210 A 
ATOM     14  N   UNL d   1       6.645  -0.193  -0.005  0.00  0.00    -0.224 NA
ENDROOT
TORSDOF 0
