ligand.pdb
 OpenBabel03221817293D

 24 23  0  0  1  0  0  0  0  0999 V2000
    1.1283    0.1422   -0.2536 N   0  0  0  0  0  0  0  0  0  0  0  0
    2.5911   -0.0120   -0.1334 C   0  0  2  0  0  0  0  0  0  0  0  0
    3.0669    0.4953   -0.9805 H   0  0  0  0  0  0  0  0  0  0  0  0
    2.9405   -1.5102   -0.1942 C   0  0  0  0  0  0  0  0  0  0  0  0
    3.0128   -2.2555    0.7699 O   0  0  0  0  0  0  0  0  0  0  0  0
    3.0783   -1.9617   -1.4661 O   0  0  0  0  0  0  0  0  0  0  0  0
    3.0870    0.6452    1.1631 C   0  0  0  0  0  0  0  0  0  0  0  0
    4.6180    0.6479    1.2550 C   0  0  0  0  0  0  0  0  0  0  0  0
    5.1087    1.3486    2.5238 C   0  0  0  0  0  0  0  0  0  0  0  0
    6.6346    1.3162    2.6064 C   0  0  0  0  0  0  0  0  0  0  0  0
    7.0949    1.9848    3.8162 N   0  0  0  0  0  0  0  0  0  0  0  0
    0.6935   -0.2693    0.5778 H   0  0  0  0  0  0  0  0  0  0  0  0
    0.7743   -0.4101   -1.0345 H   0  0  0  0  0  0  0  0  0  0  0  0
    2.9625   -1.2652   -2.1404 H   0  0  0  0  0  0  0  0  0  0  0  0
    2.6705    0.1310    2.0386 H   0  0  0  0  0  0  0  0  0  0  0  0
    2.7296    1.6830    1.2029 H   0  0  0  0  0  0  0  0  0  0  0  0
    5.0359    1.1525    0.3753 H   0  0  0  0  0  0  0  0  0  0  0  0
    4.9956   -0.3810    1.2456 H   0  0  0  0  0  0  0  0  0  0  0  0
    4.6783    0.8561    3.4049 H   0  0  0  0  0  0  0  0  0  0  0  0
    4.7553    2.3874    2.5282 H   0  0  0  0  0  0  0  0  0  0  0  0
    7.0715    1.8088    1.7307 H   0  0  0  0  0  0  0  0  0  0  0  0
    6.9882    0.2795    2.6157 H   0  0  0  0  0  0  0  0  0  0  0  0
    6.8038    2.9615    3.8036 H   0  0  0  0  0  0  0  0  0  0  0  0
    8.1138    1.9887    3.8344 H   0  0  0  0  0  0  0  0  0  0  0  0
  1 12  1  0  0  0  0
  1 13  1  0  0  0  0
  2  4  1  0  0  0  0
  2  7  1  0  0  0  0
  2  3  1  6  0  0  0
  2  1  1  0  0  0  0
  4  5  2  0  0  0  0
  4  6  1  0  0  0  0
  6 14  1  0  0  0  0
  7  8  1  0  0  0  0
  7 15  1  0  0  0  0
  7 16  1  0  0  0  0
  8  9  1  0  0  0  0
  8 17  1  0  0  0  0
  8 18  1  0  0  0  0
  9 10  1  0  0  0  0
  9 19  1  0  0  0  0
  9 20  1  0  0  0  0
 10 11  1  0  0  0  0
 10 21  1  0  0  0  0
 10 22  1  0  0  0  0
 11 23  1  0  0  0  0
 11 24  1  0  0  0  0
M  END
$$$$
