@<TRIPOS>MOLECULE
ligand.pdb
 24 23 0 0 0
SMALL
GASTEIGER

@<TRIPOS>ATOM
      1 N           1.1283    0.1422   -0.2536 N.3     1  LYS1       -0.3184
      2 CA          2.5911   -0.0120   -0.1334 C.3     1  LYS1        0.1032
      3 HA          3.0669    0.4953   -0.9805 H       1  LYS1        0.0574
      4 C           2.9405   -1.5102   -0.1942 C.2     1  LYS1        0.3217
      5 O           3.0128   -2.2555    0.7699 O.2     1  LYS1       -0.2493
      6 OXT         3.0783   -1.9617   -1.4661 O.3     1  LYS1       -0.4795
      7 CB          3.0870    0.6452    1.1631 C.3     1  LYS1       -0.0273
      8 CG          4.6180    0.6479    1.2550 C.3     1  LYS1       -0.0500
      9 CD          5.1087    1.3486    2.5238 C.3     1  LYS1       -0.0406
     10 CE          6.6346    1.3162    2.6064 C.3     1  LYS1       -0.0069
     11 NZ          7.0949    1.9848    3.8162 N.3     1  LYS1       -0.3300
     12 H1          0.6935   -0.2693    0.5778 H       1  LYS1        0.1190
     13 H2          0.7743   -0.4101   -1.0345 H       1  LYS1        0.1190
     14 HXT         2.9625   -1.2652   -2.1404 H       1  LYS1        0.2951
     15 HB1         2.6705    0.1310    2.0386 H       1  LYS1        0.0286
     16 HB2         2.7296    1.6830    1.2029 H       1  LYS1        0.0286
     17 HG1         5.0359    1.1525    0.3753 H       1  LYS1        0.0266
     18 HG2         4.9956   -0.3810    1.2456 H       1  LYS1        0.0266
     19 HD1         4.6783    0.8561    3.4049 H       1  LYS1        0.0277
     20 HD2         4.7553    2.3874    2.5282 H       1  LYS1        0.0277
     21 HE1         7.0715    1.8088    1.7307 H       1  LYS1        0.0422
     22 HE2         6.9882    0.2795    2.6157 H       1  LYS1        0.0422
     23 HZ1         6.8038    2.9615    3.8036 H       1  LYS1        0.1182
     24 HZ2         8.1138    1.9887    3.8344 H       1  LYS1        0.1182
@<TRIPOS>BOND
     1     1    12    1
     2     1    13    1
     3     2     4    1
     4     2     7    1
     5     2     3    1
     6     2     1    1
     7     4     5    2
     8     4     6    1
     9     6    14    1
    10     7     8    1
    11     7    15    1
    12     7    16    1
    13     8     9    1
    14     8    17    1
    15     8    18    1
    16     9    10    1
    17     9    19    1
    18     9    20    1
    19    10    11    1
    20    10    21    1
    21    10    22    1
    22    11    23    1
    23    11    24    1
