REMARK  8 active torsions:
REMARK  status: ('A' for Active; 'I' for Inactive)
REMARK    1  A    between atoms: CA_2  and  N_1 
REMARK    2  A    between atoms: CA_2  and  C_3 
REMARK    3  A    between atoms: CA_2  and  CB_6 
REMARK    4  A    between atoms: C_3  and  OXT_5 
REMARK    5  A    between atoms: CB_6  and  CG_7 
REMARK    6  A    between atoms: CG_7  and  CD_8 
REMARK    7  A    between atoms: CD_8  and  CE_9 
REMARK    8  A    between atoms: CE_9  and  NZ_10 
ROOT
ATOM      1  CA  LYS d   1       2.591  -0.012  -0.133  0.00  0.00     0.314 C 
ENDROOT
BRANCH   1   2
ATOM      2  C   LYS d   1       2.941  -1.510  -0.194  0.00  0.00     0.173 C 
ATOM      3  O   LYS d   1       3.013  -2.256   0.770  0.00  0.00    -0.648 OA
BRANCH   2   4
ATOM      4  OXT LYS d   1       3.078  -1.962  -1.466  0.00  0.00    -0.775 OA
ATOM      5  HXT LYS d   1       2.962  -1.265  -2.140  0.00  0.00     0.167 HD
ENDBRANCH   2   4
ENDBRANCH   1   2
BRANCH   1   6
ATOM      6  CB  LYS d   1       3.087   0.645   1.163  0.00  0.00     0.046 C 
BRANCH   6   7
ATOM      7  CG  LYS d   1       4.618   0.648   1.255  0.00  0.00     0.004 C 
BRANCH   7   8
ATOM      8  CD  LYS d   1       5.109   1.349   2.524  0.00  0.00     0.030 C 
BRANCH   8   9
ATOM      9  CE  LYS d   1       6.635   1.316   2.606  0.00  0.00     0.267 C 
BRANCH   9  10
ATOM     10  NZ  LYS d   1       7.095   1.985   3.816  0.00  0.00     0.078 N 
ATOM     11  HZ1 LYS d   1       6.804   2.962   3.804  0.00  0.00     0.312 HD
ATOM     12  HZ2 LYS d   1       8.114   1.989   3.834  0.00  0.00     0.312 HD
ENDBRANCH   9  10
ENDBRANCH   8   9
ENDBRANCH   7   8
ENDBRANCH   6   7
ENDBRANCH   1   6
BRANCH   1  13
ATOM     13  N   LYS d   1       1.128   0.142  -0.254  0.00  0.00     0.093 N 
ATOM     14  H1  LYS d   1       0.694  -0.269   0.578  0.00  0.00     0.314 HD
ATOM     15  H2  LYS d   1       0.774  -0.410  -1.034  0.00  0.00     0.314 HD
ENDBRANCH   1  13
TORSDOF 8
