@<TRIPOS>MOLECULE
2GDI_TPP_X_100
 26 27 0 0 0
SMALL
GASTEIGER
****
Coordinates from PDB:2GDI:X:100 Model:1 without hydrogens
@<TRIPOS>ATOM
      1 N         -15.0330   -8.8960    0.5940 N.ar    1  UNL1       -0.2292
      2 C         -13.7570   -8.9510    0.1400 C.ar    1  UNL1        0.1411
      3 C         -13.0200   -7.6790   -0.1810 C.3     1  UNL1        0.0737
      4 N         -13.1380  -10.1400   -0.0280 N.ar    1  UNL1       -0.2128
      5 C         -13.7800  -11.2950    0.2520 C.ar    1  UNL1        0.1750
      6 N         -13.1400  -12.4760    0.0730 N.pl3   1  UNL1       -0.1072
      7 C         -15.0840  -11.2580    0.7180 C.ar    1  UNL1        0.1094
      8 C         -15.6980  -10.0230    0.8840 C.ar    1  UNL1        0.1056
      9 C         -15.8230  -12.5420    1.0550 C.3     1  UNL1        0.3547
     10 N         -17.2640  -12.3040    1.1390 N.ar    1  UNL1       -0.1579
     11 C         -17.8580  -11.7740    2.2440 C.ar    1  UNL1        0.3279
     12 S         -19.5710  -11.6270    2.0050 S.2     1  UNL1       -0.0110
     13 C         -19.5120  -12.2620    0.4080 C.ar    1  UNL1        0.0743
     14 C         -18.0960  -12.6040    0.1040 C.ar    1  UNL1        0.2065
     15 C         -17.6430  -13.1960   -1.2040 C.3     1  UNL1        0.1080
     16 C         -20.8120  -12.3760   -0.3430 C.3     1  UNL1        0.0713
     17 C         -21.8150  -13.1160    0.5280 C.3     1  UNL1        0.1545
     18 O         -21.3740  -14.4610    0.6680 O.3     1  UNL1       -0.3134
     19 P         -21.9480  -15.3960    1.8430 P.3     1  UNL1        0.2230
     20 O         -21.6240  -14.7390    3.1590 O.2     1  UNL1       -0.5169
     21 O         -21.3980  -16.7730    1.6060 O.3     1  UNL1       -0.4370
     22 O         -23.5550  -15.3510    1.6370 O.3     1  UNL1       -0.2261
     23 P         -24.4540  -16.2920    0.6700 P.3     1  UNL1        0.5373
     24 O         -24.0310  -17.7080    0.9140 O.2     1  UNL1       -0.2221
     25 O         -25.8550  -16.1050    1.1490 O.3     1  UNL1       -0.1143
     26 O         -24.2400  -15.7710   -0.7250 O.3     1  UNL1       -0.1143
@<TRIPOS>BOND
     1     1     2   ar
     2     1     8   ar
     3     2     3    1
     4     2     4   ar
     5     4     5   ar
     6     5     6    1
     7     5     7   ar
     8     7     8   ar
     9     7     9    1
    10     9    10    1
    11    10    11   ar
    12    10    14   ar
    13    11    12   ar
    14    12    13   ar
    15    13    14   ar
    16    13    16    1
    17    14    15    1
    18    16    17    1
    19    17    18    1
    20    18    19    1
    21    19    20    2
    22    19    21    1
    23    19    22    1
    24    22    23    1
    25    23    24    2
    26    23    25    1
    27    23    26    1
