REMARK  8 active torsions:
REMARK  status: ('A' for Active; 'I' for Inactive)
REMARK    1  A    between atoms: C_7  and  C_9 
REMARK    2  A    between atoms: C_9  and  N_10 
REMARK    3  A    between atoms: C_13  and  C_16 
REMARK    4  A    between atoms: C_16  and  C_17 
REMARK    5  A    between atoms: C_17  and  O_18 
REMARK    6  A    between atoms: O_18  and  P_19 
REMARK    7  A    between atoms: P_19  and  O_22 
REMARK    8  A    between atoms: O_22  and  P_23 
ROOT
ATOM      1  N   UNL d   1     -17.264 -12.304   1.139  0.00  0.00    -0.320 N 
ATOM      2  C   UNL d   1     -17.858 -11.774   2.244  0.00  0.00     0.113 A 
ATOM      3  S   UNL d   1     -19.571 -11.627   2.005  0.00  0.00    -0.071 SA
ATOM      4  C   UNL d   1     -19.512 -12.262   0.408  0.00  0.00     0.023 A 
ATOM      5  C   UNL d   1     -18.096 -12.604   0.104  0.00  0.00     0.040 A 
ATOM      6  C   UNL d   1     -17.643 -13.196  -1.204  0.00  0.00     0.050 C 
ENDROOT
BRANCH   4   7
ATOM      7  C   UNL d   1     -20.812 -12.376  -0.343  0.00  0.00     0.067 C 
BRANCH   7   8
ATOM      8  C   UNL d   1     -21.815 -13.116   0.528  0.00  0.00     0.160 C 
BRANCH   8   9
ATOM      9  O   UNL d   1     -21.374 -14.461   0.668  0.00  0.00    -0.270 OA
BRANCH   9  10
ATOM     10  P   UNL d   1     -21.948 -15.396   1.843  0.00  0.00     0.419 P 
ATOM     11  O   UNL d   1     -21.624 -14.739   3.159  0.00  0.00    -0.624 OA
ATOM     12  O   UNL d   1     -21.398 -16.773   1.606  0.00  0.00    -0.624 OA
BRANCH  10  13
ATOM     13  O   UNL d   1     -23.555 -15.351   1.637  0.00  0.00    -0.173 OA
BRANCH  13  14
ATOM     14  P   UNL d   1     -24.454 -16.292   0.670  0.00  0.00     0.431 P 
ATOM     15  O   UNL d   1     -24.031 -17.708   0.914  0.00  0.00    -0.616 OA
ATOM     16  O   UNL d   1     -25.855 -16.105   1.149  0.00  0.00    -0.616 OA
ATOM     17  O   UNL d   1     -24.240 -15.771  -0.725  0.00  0.00    -0.616 OA
ENDBRANCH  13  14
ENDBRANCH  10  13
ENDBRANCH   9  10
ENDBRANCH   8   9
ENDBRANCH   7   8
ENDBRANCH   4   7
BRANCH   1  18
ATOM     18  C   UNL d   1     -15.823 -12.542   1.055  0.00  0.00     0.138 C 
BRANCH  18  19
ATOM     19  C   UNL d   1     -15.084 -11.258   0.718  0.00  0.00     0.057 A 
ATOM     20  C   UNL d   1     -13.780 -11.295   0.252  0.00  0.00     0.184 A 
ATOM     21  N   UNL d   1     -13.138 -10.140  -0.028  0.00  0.00    -0.211 NA
ATOM     22  N   UNL d   1     -13.140 -12.476   0.073  0.00  0.00    -0.127 N 
ATOM     23  C   UNL d   1     -13.757  -8.951   0.140  0.00  0.00     0.141 A 
ATOM     24  N   UNL d   1     -15.033  -8.896   0.594  0.00  0.00    -0.230 NA
ATOM     25  C   UNL d   1     -13.020  -7.679  -0.181  0.00  0.00     0.074 C 
ATOM     26  C   UNL d   1     -15.698 -10.023   0.884  0.00  0.00     0.101 A 
ENDBRANCH  18  19
ENDBRANCH   1  18
TORSDOF 8
