@<TRIPOS>MOLECULE
1ZZ5_CNY_A_42
 85 89 0 0 0
SMALL
GASTEIGER

@<TRIPOS>ATOM
      1 C          -0.4942    1.2621    1.6125 C.3     1  UNL1        0.1778
      2 H          -0.2951    1.1077    2.6781 H       1  UNL1        0.0927
      3 O           0.5280    0.4980    0.9149 O.3     1  UNL1       -0.3422
      4 C           1.8789    0.9719    1.1433 C.3     1  UNL1        0.1055
      5 H           1.8695    1.7941    1.8731 H       1  UNL1        0.0639
      6 C           2.4137    1.4588   -0.2324 C.3     1  UNL1        0.0355
      7 H           2.4668    0.5951   -0.9100 H       1  UNL1        0.0485
      8 C           3.8098    2.0750   -0.0869 C.3     1  UNL1       -0.0175
      9 C           4.8024    1.0969    0.5511 C.3     1  UNL1        0.0351
     10 H           4.9570    0.2525   -0.1305 H       1  UNL1        0.0485
     11 N           6.0889    1.7697    0.7317 N.3     1  UNL1       -0.3250
     12 C           4.2666    0.5588    1.8893 C.3     1  UNL1        0.0990
     13 H           4.1697    1.3621    2.6324 H       1  UNL1        0.0636
     14 C           2.9031   -0.1201    1.6568 C.3     1  UNL1        0.1166
     15 H           3.0689   -0.8438    0.8487 H       1  UNL1        0.0650
     16 O           2.5391   -0.8684    2.8561 O.3     1  UNL1       -0.3402
     17 C           1.5706   -1.8292    2.5037 C.3     1  UNL1        0.1884
     18 H           1.7638   -2.1023    1.4682 H       1  UNL1        0.0938
     19 C           1.2664   -3.1166    3.2597 C.3     1  UNL1        0.1345
     20 H           1.0831   -2.8838    4.3170 H       1  UNL1        0.0671
     21 O           2.2760   -4.0926    3.1916 O.3     1  UNL1       -0.3841
     22 C          -0.0998   -3.5227    2.5730 C.3     1  UNL1        0.1196
     23 H          -0.7920   -3.8543    3.3568 H       1  UNL1        0.0651
     24 O          -0.1196   -4.5665    1.5744 O.3     1  UNL1       -0.3411
     25 C           0.9079   -4.6176    0.5733 C.3     1  UNL1        0.1776
     26 H           1.5558   -3.7569    0.6797 H       1  UNL1        0.0927
     27 C           0.4113   -4.5305   -0.8952 C.3     1  UNL1        0.0853
     28 H           1.2728   -4.1879   -1.4902 H       1  UNL1        0.0535
     29 N          -0.6697   -3.5733   -1.1015 N.3     1  UNL1       -0.3211
     30 C          -0.0115   -5.8740   -1.4849 C.3     1  UNL1        0.1033
     31 H          -0.9622   -6.2219   -1.0630 H       1  UNL1        0.0637
     32 O          -0.1933   -5.7394   -2.8949 O.3     1  UNL1       -0.3874
     33 C           1.1030   -6.8777   -1.2379 C.3     1  UNL1        0.1100
     34 H           2.0146   -6.5517   -1.7601 H       1  UNL1        0.0646
     35 O           0.7361   -8.1407   -1.7815 O.3     1  UNL1       -0.3866
     36 C           1.3941   -6.9962    0.2591 C.3     1  UNL1        0.1022
     37 H           2.2689   -7.6504    0.3544 H       1  UNL1        0.0636
     38 O           1.8029   -5.7259    0.7835 O.3     1  UNL1       -0.3425
     39 C           0.2763   -7.6470    1.0911 C.3     1  UNL1        0.0222
     40 N           0.6935   -7.7717    2.4851 N.3     1  UNL1       -0.3276
     41 C          -0.5645   -2.1853    1.9744 C.3     1  UNL1        0.1029
     42 H          -0.2933   -2.1667    0.9193 H       1  UNL1        0.0637
     43 O           0.2861   -1.2440    2.6133 O.3     1  UNL1       -0.3415
     44 C          -1.9669   -1.6422    2.1179 C.3     1  UNL1        0.0253
     45 N          -2.1804   -0.6675    1.0447 N.3     1  UNL1       -0.3043
     46 C          -1.9536    0.7524    1.3380 C.3     1  UNL1        0.0879
     47 H          -2.5745    1.0213    2.2023 H       1  UNL1        0.0537
     48 C          -2.5119    1.5392    0.1437 C.3     1  UNL1        0.1035
     49 H          -1.8929    1.3591   -0.7453 H       1  UNL1        0.0637
     50 O          -3.8441    1.1133   -0.1592 O.3     1  UNL1       -0.3874
     51 C          -2.5731    3.0325    0.4503 C.3     1  UNL1        0.1100
     52 H          -3.5428    3.3010    0.8883 H       1  UNL1        0.0646
     53 O          -2.5076    3.7233   -0.8062 O.3     1  UNL1       -0.3866
     54 C          -1.4222    3.5333    1.3360 C.3     1  UNL1        0.1022
     55 H          -1.0269    4.4358    0.8493 H       1  UNL1        0.0636
     56 O          -0.3039    2.6627    1.3631 O.3     1  UNL1       -0.3425
     57 C          -1.8536    4.0319    2.7389 C.3     1  UNL1        0.0222
     58 N          -1.4629    3.1775    3.8496 N.3     1  UNL1       -0.3276
     59 O           5.1894   -0.4088    2.3848 O.3     1  UNL1       -0.3876
     60 N           1.5401    2.4450   -0.8739 N.3     1  UNL1       -0.3250
     61 H           4.1823    2.3781   -1.0748 H       1  UNL1        0.0297
     62 H           3.7470    2.9912    0.5134 H       1  UNL1        0.0297
     63 H           6.7061    1.1758    1.2789 H       1  UNL1        0.1185
     64 H           6.5381    1.8726   -0.1763 H       1  UNL1        0.1185
     65 H           1.9594   -4.8672    3.6898 H       1  UNL1        0.2101
     66 H          -1.3229   -3.6182   -0.3216 H       1  UNL1        0.1187
     67 H          -0.2912   -2.6272   -1.1207 H       1  UNL1        0.1187
     68 H          -0.7814   -4.9782   -3.0421 H       1  UNL1        0.2100
     69 H           1.5296   -8.5157   -2.2035 H       1  UNL1        0.2100
     70 H          -0.6581   -7.0830    1.0336 H       1  UNL1        0.0448
     71 H           0.0653   -8.6523    0.7046 H       1  UNL1        0.0448
     72 H           0.3012   -7.0011    3.0260 H       1  UNL1        0.1183
     73 H           0.3060   -8.6277    2.8829 H       1  UNL1        0.1183
     74 H          -2.1263   -1.1856    3.1028 H       1  UNL1        0.0450
     75 H          -2.6939   -2.4507    2.0087 H       1  UNL1        0.0450
     76 H          -1.7073   -0.9389    0.1842 H       1  UNL1        0.1225
     77 H          -3.9319    1.0831   -1.1272 H       1  UNL1        0.2100
     78 H          -3.3918    3.6655   -1.2067 H       1  UNL1        0.2100
     79 H          -2.9373    4.1948    2.7797 H       1  UNL1        0.0448
     80 H          -1.4022    5.0213    2.9011 H       1  UNL1        0.0448
     81 H          -2.2534    2.5952    4.1264 H       1  UNL1        0.1183
     82 H          -1.2455    3.7546    4.6621 H       1  UNL1        0.1183
     83 H           5.0651   -0.4535    3.3479 H       1  UNL1        0.2100
     84 H           0.5908    2.0726   -0.9193 H       1  UNL1        0.1185
     85 H           1.8276    2.5648   -1.8451 H       1  UNL1        0.1185
@<TRIPOS>BOND
     1     1     2    1
     2     3     1    1
     3     4     3    1
     4     4     5    1
     5     6     4    1
     6     6     7    1
     7     8     6    1
     8     9     8    1
     9     9    10    1
    10    11     9    1
    11    12     9    1
    12    12    13    1
    13    14    12    1
    14    14    15    1
    15    14     4    1
    16    16    14    1
    17    17    16    1
    18    17    18    1
    19    19    17    1
    20    19    20    1
    21    21    19    1
    22    22    19    1
    23    22    23    1
    24    24    22    1
    25    25    24    1
    26    25    26    1
    27    27    25    1
    28    27    28    1
    29    29    27    1
    30    30    27    1
    31    30    31    1
    32    32    30    1
    33    33    30    1
    34    33    34    1
    35    35    33    1
    36    36    33    1
    37    36    37    1
    38    38    36    1
    39    38    25    1
    40    39    36    1
    41    40    39    1
    42    41    22    1
    43    41    42    1
    44    43    41    1
    45    43    17    1
    46    44    41    1
    47    45    44    1
    48    46    45    1
    49    46    47    1
    50    46     1    1
    51    48    46    1
    52    48    49    1
    53    50    48    1
    54    51    48    1
    55    51    52    1
    56    53    51    1
    57    54    51    1
    58    54    55    1
    59    56    54    1
    60    56     1    1
    61    57    54    1
    62    58    57    1
    63    59    12    1
    64    60     6    1
    65     8    61    1
    66     8    62    1
    67    11    63    1
    68    11    64    1
    69    21    65    1
    70    29    66    1
    71    29    67    1
    72    32    68    1
    73    35    69    1
    74    39    70    1
    75    39    71    1
    76    40    72    1
    77    40    73    1
    78    44    74    1
    79    44    75    1
    80    45    76    1
    81    50    77    1
    82    53    78    1
    83    57    79    1
    84    57    80    1
    85    58    81    1
    86    58    82    1
    87    59    83    1
    88    60    84    1
    89    60    85    1
