REMARK  15 active torsions:
REMARK  status: ('A' for Active; 'I' for Inactive)
REMARK    1  A    between atoms: N_41  and  C_4 
REMARK    2  A    between atoms: N_7  and  C_6 
REMARK    3  A    between atoms: O_40  and  C_8 
REMARK    4  A    between atoms: O_13  and  C_12 
REMARK    5  A    between atoms: O_15  and  C_14 
REMARK    6  A    between atoms: C_16  and  O_15 
REMARK    7  A    between atoms: N_18  and  C_17 
REMARK    8  A    between atoms: O_20  and  C_19 
REMARK    9  A    between atoms: O_22  and  C_21 
REMARK   10  A    between atoms: C_25  and  C_23 
REMARK   11  A    between atoms: N_26  and  C_25 
REMARK   12  A    between atoms: O_33  and  C_32 
REMARK   13  A    between atoms: O_35  and  C_34 
REMARK   14  A    between atoms: C_38  and  C_36 
REMARK   15  A    between atoms: N_39  and  C_38 
ROOT
ATOM      1  C   UNL d   1      -0.494   1.262   1.613  0.00  0.00     0.296 C 
ATOM      2  O   UNL d   1       0.528   0.498   0.915  0.00  0.00    -0.349 OA
ATOM      3  C   UNL d   1       1.879   0.972   1.143  0.00  0.00     0.189 C 
ATOM      4  C   UNL d   1       2.414   1.459  -0.232  0.00  0.00     0.251 C 
ATOM      5  C   UNL d   1       3.810   2.075  -0.087  0.00  0.00     0.076 C 
ATOM      6  C   UNL d   1       4.802   1.097   0.551  0.00  0.00     0.251 C 
ATOM      7  C   UNL d   1       4.267   0.559   1.889  0.00  0.00     0.182 C 
ATOM      8  C   UNL d   1       2.903  -0.120   1.657  0.00  0.00     0.186 C 
ATOM      9  O   UNL d   1       2.539  -0.868   2.856  0.00  0.00    -0.348 OA
ATOM     10  C   UNL d   1       1.571  -1.829   2.504  0.00  0.00     0.292 C 
ATOM     11  C   UNL d   1       1.266  -3.117   3.260  0.00  0.00     0.205 C 
ATOM     12  C   UNL d   1      -0.100  -3.523   2.573  0.00  0.00     0.189 C 
ATOM     13  C   UNL d   1      -0.565  -2.185   1.974  0.00  0.00     0.184 C 
ATOM     14  O   UNL d   1       0.286  -1.244   2.613  0.00  0.00    -0.349 OA
ATOM     15  C   UNL d   1      -1.967  -1.642   2.118  0.00  0.00     0.304 C 
ATOM     16  N   UNL d   1      -2.180  -0.667   1.045  0.00  0.00     0.098 N 
ATOM     17  C   UNL d   1      -1.954   0.752   1.338  0.00  0.00     0.306 C 
ATOM     18  C   UNL d   1      -2.512   1.539   0.144  0.00  0.00     0.187 C 
ATOM     19  C   UNL d   1      -2.573   3.033   0.450  0.00  0.00     0.179 C 
ATOM     20  C   UNL d   1      -1.422   3.533   1.336  0.00  0.00     0.183 C 
ATOM     21  O   UNL d   1      -0.304   2.663   1.363  0.00  0.00    -0.349 OA
ATOM     22  H   UNL d   1      -1.707  -0.939   0.184  0.00  0.00     0.316 HD
ENDROOT
BRANCH  12  23
ATOM     23  O   UNL d   1      -0.120  -4.566   1.574  0.00  0.00    -0.348 OA
BRANCH  23  24
ATOM     24  C   UNL d   1       0.908  -4.618   0.573  0.00  0.00     0.296 C 
ATOM     25  C   UNL d   1       0.411  -4.530  -0.895  0.00  0.00     0.303 C 
ATOM     26  C   UNL d   1      -0.011  -5.874  -1.485  0.00  0.00     0.187 C 
ATOM     27  C   UNL d   1       1.103  -6.878  -1.238  0.00  0.00     0.179 C 
ATOM     28  C   UNL d   1       1.394  -6.996   0.259  0.00  0.00     0.183 C 
ATOM     29  O   UNL d   1       1.803  -5.726   0.783  0.00  0.00    -0.349 OA
BRANCH  25  30
ATOM     30  N   UNL d   1      -0.670  -3.573  -1.101  0.00  0.00     0.090 N 
ATOM     31  H   UNL d   1      -1.323  -3.618  -0.322  0.00  0.00     0.313 HD
ATOM     32  H   UNL d   1      -0.291  -2.627  -1.121  0.00  0.00     0.313 HD
ENDBRANCH  25  30
BRANCH  26  33
ATOM     33  O   UNL d   1      -0.193  -5.739  -2.895  0.00  0.00    -0.391 OA
ATOM     34  H   UNL d   1      -0.781  -4.978  -3.042  0.00  0.00     0.210 HD
ENDBRANCH  26  33
BRANCH  27  35
ATOM     35  O   UNL d   1       0.736  -8.141  -1.782  0.00  0.00    -0.390 OA
ATOM     36  H   UNL d   1       1.530  -8.516  -2.204  0.00  0.00     0.210 HD
ENDBRANCH  27  35
BRANCH  28  37
ATOM     37  C   UNL d   1       0.276  -7.647   1.091  0.00  0.00     0.301 C 
BRANCH  37  38
ATOM     38  N   UNL d   1       0.694  -7.772   2.485  0.00  0.00     0.080 N 
ATOM     39  H   UNL d   1       0.301  -7.001   3.026  0.00  0.00     0.312 HD
ATOM     40  H   UNL d   1       0.306  -8.628   2.883  0.00  0.00     0.312 HD
ENDBRANCH  37  38
ENDBRANCH  28  37
ENDBRANCH  23  24
ENDBRANCH  12  23
BRANCH  11  41
ATOM     41  O   UNL d   1       2.276  -4.093   3.192  0.00  0.00    -0.388 OA
ATOM     42  H   UNL d   1       1.959  -4.867   3.690  0.00  0.00     0.210 HD
ENDBRANCH  11  41
BRANCH   7  43
ATOM     43  O   UNL d   1       5.189  -0.409   2.385  0.00  0.00    -0.391 OA
ATOM     44  H   UNL d   1       5.065  -0.454   3.348  0.00  0.00     0.210 HD
ENDBRANCH   7  43
BRANCH  18  45
ATOM     45  O   UNL d   1      -3.844   1.113  -0.159  0.00  0.00    -0.391 OA
ATOM     46  H   UNL d   1      -3.932   1.083  -1.127  0.00  0.00     0.210 HD
ENDBRANCH  18  45
BRANCH   6  47
ATOM     47  N   UNL d   1       6.089   1.770   0.732  0.00  0.00     0.085 N 
ATOM     48  H   UNL d   1       6.706   1.176   1.279  0.00  0.00     0.313 HD
ATOM     49  H   UNL d   1       6.538   1.873  -0.176  0.00  0.00     0.313 HD
ENDBRANCH   6  47
BRANCH   4  50
ATOM     50  N   UNL d   1       1.540   2.445  -0.874  0.00  0.00     0.085 N 
ATOM     51  H   UNL d   1       0.591   2.073  -0.919  0.00  0.00     0.313 HD
ATOM     52  H   UNL d   1       1.828   2.565  -1.845  0.00  0.00     0.313 HD
ENDBRANCH   4  50
BRANCH  19  53
ATOM     53  O   UNL d   1      -2.508   3.723  -0.806  0.00  0.00    -0.390 OA
ATOM     54  H   UNL d   1      -3.392   3.666  -1.207  0.00  0.00     0.210 HD
ENDBRANCH  19  53
BRANCH  20  55
ATOM     55  C   UNL d   1      -1.854   4.032   2.739  0.00  0.00     0.301 C 
BRANCH  55  56
ATOM     56  N   UNL d   1      -1.463   3.178   3.850  0.00  0.00     0.080 N 
ATOM     57  H   UNL d   1      -2.253   2.595   4.126  0.00  0.00     0.312 HD
ATOM     58  H   UNL d   1      -1.246   3.755   4.662  0.00  0.00     0.312 HD
ENDBRANCH  55  56
ENDBRANCH  20  55
TORSDOF 15
