1ZZ5_CNY_A_42
  1228              3D

 85 89  0  0  0  0  0  0  0  0999 V2000
   -0.4942    1.2621    1.6125 C   0  0  0  0  0  0  0  0  0  0  0  0
   -0.2951    1.1077    2.6781 H   0  0  0  0  0  0  0  0  0  0  0  0
    0.5280    0.4980    0.9149 O   0  0  0  0  0  0  0  0  0  0  0  0
    1.8789    0.9719    1.1433 C   0  0  0  0  0  0  0  0  0  0  0  0
    1.8695    1.7941    1.8731 H   0  0  0  0  0  0  0  0  0  0  0  0
    2.4137    1.4588   -0.2324 C   0  0  0  0  0  0  0  0  0  0  0  0
    2.4668    0.5951   -0.9100 H   0  0  0  0  0  0  0  0  0  0  0  0
    3.8098    2.0750   -0.0869 C   0  0  0  0  0  0  0  0  0  0  0  0
    4.8024    1.0969    0.5511 C   0  0  0  0  0  0  0  0  0  0  0  0
    4.9570    0.2525   -0.1305 H   0  0  0  0  0  0  0  0  0  0  0  0
    6.0889    1.7697    0.7317 N   0  0  0  0  0  0  0  0  0  0  0  0
    4.2666    0.5588    1.8893 C   0  0  0  0  0  0  0  0  0  0  0  0
    4.1697    1.3621    2.6324 H   0  0  0  0  0  0  0  0  0  0  0  0
    2.9031   -0.1201    1.6568 C   0  0  0  0  0  0  0  0  0  0  0  0
    3.0689   -0.8438    0.8487 H   0  0  0  0  0  0  0  0  0  0  0  0
    2.5391   -0.8684    2.8561 O   0  0  0  0  0  0  0  0  0  0  0  0
    1.5706   -1.8292    2.5037 C   0  0  0  0  0  0  0  0  0  0  0  0
    1.7638   -2.1023    1.4682 H   0  0  0  0  0  0  0  0  0  0  0  0
    1.2664   -3.1166    3.2597 C   0  0  0  0  0  0  0  0  0  0  0  0
    1.0831   -2.8838    4.3170 H   0  0  0  0  0  0  0  0  0  0  0  0
    2.2760   -4.0926    3.1916 O   0  0  0  0  0  0  0  0  0  0  0  0
   -0.0998   -3.5227    2.5730 C   0  0  0  0  0  0  0  0  0  0  0  0
   -0.7920   -3.8543    3.3568 H   0  0  0  0  0  0  0  0  0  0  0  0
   -0.1196   -4.5665    1.5744 O   0  0  0  0  0  0  0  0  0  0  0  0
    0.9079   -4.6176    0.5733 C   0  0  0  0  0  0  0  0  0  0  0  0
    1.5558   -3.7569    0.6797 H   0  0  0  0  0  0  0  0  0  0  0  0
    0.4113   -4.5305   -0.8952 C   0  0  0  0  0  0  0  0  0  0  0  0
    1.2728   -4.1879   -1.4902 H   0  0  0  0  0  0  0  0  0  0  0  0
   -0.6697   -3.5733   -1.1015 N   0  0  0  0  0  0  0  0  0  0  0  0
   -0.0115   -5.8740   -1.4849 C   0  0  0  0  0  0  0  0  0  0  0  0
   -0.9622   -6.2219   -1.0630 H   0  0  0  0  0  0  0  0  0  0  0  0
   -0.1933   -5.7394   -2.8949 O   0  0  0  0  0  0  0  0  0  0  0  0
    1.1030   -6.8777   -1.2379 C   0  0  0  0  0  0  0  0  0  0  0  0
    2.0146   -6.5517   -1.7601 H   0  0  0  0  0  0  0  0  0  0  0  0
    0.7361   -8.1407   -1.7815 O   0  0  0  0  0  0  0  0  0  0  0  0
    1.3941   -6.9962    0.2591 C   0  0  0  0  0  0  0  0  0  0  0  0
    2.2689   -7.6504    0.3544 H   0  0  0  0  0  0  0  0  0  0  0  0
    1.8029   -5.7259    0.7835 O   0  0  0  0  0  0  0  0  0  0  0  0
    0.2763   -7.6470    1.0911 C   0  0  0  0  0  0  0  0  0  0  0  0
    0.6935   -7.7717    2.4851 N   0  0  0  0  0  0  0  0  0  0  0  0
   -0.5645   -2.1853    1.9744 C   0  0  0  0  0  0  0  0  0  0  0  0
   -0.2933   -2.1667    0.9193 H   0  0  0  0  0  0  0  0  0  0  0  0
    0.2861   -1.2440    2.6133 O   0  0  0  0  0  0  0  0  0  0  0  0
   -1.9669   -1.6422    2.1179 C   0  0  0  0  0  0  0  0  0  0  0  0
   -2.1804   -0.6675    1.0447 N   0  0  0  0  0  0  0  0  0  0  0  0
   -1.9536    0.7524    1.3380 C   0  0  0  0  0  0  0  0  0  0  0  0
   -2.5745    1.0213    2.2023 H   0  0  0  0  0  0  0  0  0  0  0  0
   -2.5119    1.5392    0.1437 C   0  0  0  0  0  0  0  0  0  0  0  0
   -1.8929    1.3591   -0.7453 H   0  0  0  0  0  0  0  0  0  0  0  0
   -3.8441    1.1133   -0.1592 O   0  0  0  0  0  0  0  0  0  0  0  0
   -2.5731    3.0325    0.4503 C   0  0  0  0  0  0  0  0  0  0  0  0
   -3.5428    3.3010    0.8883 H   0  0  0  0  0  0  0  0  0  0  0  0
   -2.5076    3.7233   -0.8062 O   0  0  0  0  0  0  0  0  0  0  0  0
   -1.4222    3.5333    1.3360 C   0  0  0  0  0  0  0  0  0  0  0  0
   -1.0269    4.4358    0.8493 H   0  0  0  0  0  0  0  0  0  0  0  0
   -0.3039    2.6627    1.3631 O   0  0  0  0  0  0  0  0  0  0  0  0
   -1.8536    4.0319    2.7389 C   0  0  0  0  0  0  0  0  0  0  0  0
   -1.4629    3.1775    3.8496 N   0  0  0  0  0  0  0  0  0  0  0  0
    5.1894   -0.4088    2.3848 O   0  0  0  0  0  0  0  0  0  0  0  0
    1.5401    2.4450   -0.8739 N   0  0  0  0  0  0  0  0  0  0  0  0
    4.1823    2.3781   -1.0748 H   0  0  0  0  0  0  0  0  0  0  0  0
    3.7470    2.9912    0.5134 H   0  0  0  0  0  0  0  0  0  0  0  0
    6.7061    1.1758    1.2789 H   0  0  0  0  0  0  0  0  0  0  0  0
    6.5381    1.8726   -0.1763 H   0  0  0  0  0  0  0  0  0  0  0  0
    1.9594   -4.8672    3.6898 H   0  0  0  0  0  0  0  0  0  0  0  0
   -1.3229   -3.6182   -0.3216 H   0  0  0  0  0  0  0  0  0  0  0  0
   -0.2912   -2.6272   -1.1207 H   0  0  0  0  0  0  0  0  0  0  0  0
   -0.7814   -4.9782   -3.0421 H   0  0  0  0  0  0  0  0  0  0  0  0
    1.5296   -8.5157   -2.2035 H   0  0  0  0  0  0  0  0  0  0  0  0
   -0.6581   -7.0830    1.0336 H   0  0  0  0  0  0  0  0  0  0  0  0
    0.0653   -8.6523    0.7046 H   0  0  0  0  0  0  0  0  0  0  0  0
    0.3012   -7.0011    3.0260 H   0  0  0  0  0  0  0  0  0  0  0  0
    0.3060   -8.6277    2.8829 H   0  0  0  0  0  0  0  0  0  0  0  0
   -2.1263   -1.1856    3.1028 H   0  0  0  0  0  0  0  0  0  0  0  0
   -2.6939   -2.4507    2.0087 H   0  0  0  0  0  0  0  0  0  0  0  0
   -1.7073   -0.9389    0.1842 H   0  0  0  0  0  0  0  0  0  0  0  0
   -3.9319    1.0831   -1.1272 H   0  0  0  0  0  0  0  0  0  0  0  0
   -3.3918    3.6655   -1.2067 H   0  0  0  0  0  0  0  0  0  0  0  0
   -2.9373    4.1948    2.7797 H   0  0  0  0  0  0  0  0  0  0  0  0
   -1.4022    5.0213    2.9011 H   0  0  0  0  0  0  0  0  0  0  0  0
   -2.2534    2.5952    4.1264 H   0  0  0  0  0  0  0  0  0  0  0  0
   -1.2455    3.7546    4.6621 H   0  0  0  0  0  0  0  0  0  0  0  0
    5.0651   -0.4535    3.3479 H   0  0  0  0  0  0  0  0  0  0  0  0
    0.5908    2.0726   -0.9193 H   0  0  0  0  0  0  0  0  0  0  0  0
    1.8276    2.5648   -1.8451 H   0  0  0  0  0  0  0  0  0  0  0  0
  1  2  1  0  0  0  0
  3  1  1  0  0  0  0
  4  3  1  0  0  0  0
  4  5  1  0  0  0  0
  6  4  1  0  0  0  0
  6  7  1  0  0  0  0
  8  6  1  0  0  0  0
  9  8  1  0  0  0  0
  9 10  1  0  0  0  0
 11  9  1  0  0  0  0
 12  9  1  0  0  0  0
 12 13  1  0  0  0  0
 14 12  1  0  0  0  0
 14 15  1  0  0  0  0
 14  4  1  0  0  0  0
 16 14  1  0  0  0  0
 17 16  1  0  0  0  0
 17 18  1  0  0  0  0
 19 17  1  0  0  0  0
 19 20  1  0  0  0  0
 21 19  1  0  0  0  0
 22 19  1  0  0  0  0
 22 23  1  0  0  0  0
 24 22  1  0  0  0  0
 25 24  1  0  0  0  0
 25 26  1  0  0  0  0
 27 25  1  0  0  0  0
 27 28  1  0  0  0  0
 29 27  1  0  0  0  0
 30 27  1  0  0  0  0
 30 31  1  0  0  0  0
 32 30  1  0  0  0  0
 33 30  1  0  0  0  0
 33 34  1  0  0  0  0
 35 33  1  0  0  0  0
 36 33  1  0  0  0  0
 36 37  1  0  0  0  0
 38 36  1  0  0  0  0
 38 25  1  0  0  0  0
 39 36  1  0  0  0  0
 40 39  1  0  0  0  0
 41 22  1  0  0  0  0
 41 42  1  0  0  0  0
 43 41  1  0  0  0  0
 43 17  1  0  0  0  0
 44 41  1  0  0  0  0
 45 44  1  0  0  0  0
 46 45  1  0  0  0  0
 46 47  1  0  0  0  0
 46  1  1  0  0  0  0
 48 46  1  0  0  0  0
 48 49  1  0  0  0  0
 50 48  1  0  0  0  0
 51 48  1  0  0  0  0
 51 52  1  0  0  0  0
 53 51  1  0  0  0  0
 54 51  1  0  0  0  0
 54 55  1  0  0  0  0
 56 54  1  0  0  0  0
 56  1  1  0  0  0  0
 57 54  1  0  0  0  0
 58 57  1  0  0  0  0
 59 12  1  0  0  0  0
 60  6  1  0  0  0  0
  8 61  1  0  0  0  0
  8 62  1  0  0  0  0
 11 63  1  0  0  0  0
 11 64  1  0  0  0  0
 21 65  1  0  0  0  0
 29 66  1  0  0  0  0
 29 67  1  0  0  0  0
 32 68  1  0  0  0  0
 35 69  1  0  0  0  0
 39 70  1  0  0  0  0
 39 71  1  0  0  0  0
 40 72  1  0  0  0  0
 40 73  1  0  0  0  0
 44 74  1  0  0  0  0
 44 75  1  0  0  0  0
 45 76  1  0  0  0  0
 50 77  1  0  0  0  0
 53 78  1  0  0  0  0
 57 79  1  0  0  0  0
 57 80  1  0  0  0  0
 58 81  1  0  0  0  0
 58 82  1  0  0  0  0
 59 83  1  0  0  0  0
 60 84  1  0  0  0  0
 60 85  1  0  0  0  0
M  END
>  <energy>
187.98466363090949

$$$$
