@<TRIPOS>MOLECULE
4QK8_2BA_A_201
 68 74 0 0 0
SMALL
GASTEIGER

@<TRIPOS>ATOM
      1 P          -3.7523    0.4930    0.3252 P.3     1  UNL1        0.4754
      2 O          -4.4649   -0.7350    0.8011 O.2     1  UNL1       -0.2273
      3 O          -4.3654    1.8861    0.8671 O.3     1  UNL1       -0.3025
      4 O          -2.1885    0.5378    0.7219 O.3     1  UNL1       -0.2840
      5 C          -1.5913    1.7159    1.2394 C.3     1  UNL1        0.0879
      6 C          -0.0880    1.6205    1.0647 C.3     1  UNL1        0.1142
      7 H           0.3533    2.4249    1.6714 H       1  UNL1        0.0647
      8 O           0.4083    0.3695    1.5645 O.3     1  UNL1       -0.3456
      9 C           1.4336   -0.1020    0.6629 C.3     1  UNL1        0.1667
     10 H           1.0039   -0.9047    0.0450 H       1  UNL1        0.0866
     11 C           1.7723    1.0910   -0.2352 C.3     1  UNL1        0.1294
     12 H           2.4833    1.8039    0.1987 H       1  UNL1        0.0666
     13 C           0.3943    1.7067   -0.3770 C.3     1  UNL1        0.1283
     14 H          -0.2207    1.0939   -1.0477 H       1  UNL1        0.0656
     15 O           0.4404    3.0507   -0.8045 O.3     1  UNL1       -0.2779
     16 P          -0.3509    3.5639   -2.1215 P.3     1  UNL1        0.4754
     17 O          -0.3799    5.0600   -2.2580 O.2     1  UNL1       -0.2273
     18 O           0.4182    2.8084   -3.3314 O.3     1  UNL1       -0.3025
     19 O          -1.8258    2.8867   -2.0342 O.3     1  UNL1       -0.2840
     20 C          -2.2956    2.0955   -3.1156 C.3     1  UNL1        0.0879
     21 C          -3.8189    2.0955   -3.1966 C.3     1  UNL1        0.1142
     22 H          -4.2022    3.1129   -3.3485 H       1  UNL1        0.0647
     23 O          -4.1438    1.3499   -4.3978 O.3     1  UNL1       -0.3456
     24 C          -4.6680    0.0838   -3.9659 C.3     1  UNL1        0.1667
     25 H          -3.8071   -0.5097   -3.6355 H       1  UNL1        0.0866
     26 C          -5.5319    0.4474   -2.7748 C.3     1  UNL1        0.1294
     27 H          -5.8157   -0.4255   -2.1805 H       1  UNL1        0.0666
     28 C          -4.5860    1.4027   -2.0462 C.3     1  UNL1        0.1283
     29 H          -5.1119    2.1363   -1.4269 H       1  UNL1        0.0656
     30 O          -3.6744    0.6364   -1.2782 O.3     1  UNL1       -0.2779
     31 O          -6.7081    1.1514   -3.1599 O.3     1  UNL1       -0.3846
     32 N          -5.2211   -0.5977   -5.1073 N.ar    1  UNL1       -0.2855
     33 C          -5.9525   -0.0526   -6.1336 C.ar    1  UNL1        0.1004
     34 N          -5.8462   -0.7760   -7.2354 N.ar    1  UNL1       -0.2306
     35 C          -4.8128   -1.6420   -6.9489 C.ar    1  UNL1        0.1473
     36 C          -4.0898   -2.5407   -7.7486 C.ar    1  UNL1        0.1472
     37 N          -3.7721   -2.2142   -9.0834 N.pl3   1  UNL1       -0.3413
     38 N          -3.3225   -3.4635   -7.0955 N.ar    1  UNL1       -0.2188
     39 C          -3.4213   -3.5623   -5.7506 C.ar    1  UNL1        0.1205
     40 N          -4.0419   -2.7272   -4.9003 N.ar    1  UNL1       -0.2159
     41 C          -4.7427   -1.8032   -5.5740 C.ar    1  UNL1        0.1674
     42 O           2.2763    0.6428   -1.4843 O.3     1  UNL1       -0.3846
     43 N           2.4606   -0.7085    1.4783 N.ar    1  UNL1       -0.2855
     44 C           3.5894   -0.1295    1.9893 C.ar    1  UNL1        0.1004
     45 N           4.2704   -0.9824    2.7297 N.ar    1  UNL1       -0.2306
     46 C           3.3794   -2.0079    2.9749 C.ar    1  UNL1        0.1473
     47 C           3.5996   -3.2432    3.6210 C.ar    1  UNL1        0.1472
     48 N           4.5192   -3.3426    4.6847 N.pl3   1  UNL1       -0.3413
     49 N           2.6136   -4.1803    3.5034 N.ar    1  UNL1       -0.2188
     50 C           1.6575   -3.9905    2.5670 C.ar    1  UNL1        0.1205
     51 N           1.4694   -2.9260    1.7616 N.ar    1  UNL1       -0.2159
     52 C           2.4256   -2.0020    1.9617 C.ar    1  UNL1        0.1674
     53 H          -4.3226    2.0678    1.8297 H       1  UNL1        0.2220
     54 H          -1.9837    2.6045    0.7361 H       1  UNL1        0.0592
     55 H          -1.8466    1.7637    2.3036 H       1  UNL1        0.0592
     56 H           1.2886    2.3896   -3.1646 H       1  UNL1        0.2220
     57 H          -1.8917    1.0857   -2.9977 H       1  UNL1        0.0592
     58 H          -1.8998    2.4907   -4.0565 H       1  UNL1        0.0592
     59 H          -6.4559    1.8316   -3.8081 H       1  UNL1        0.2101
     60 H          -6.5169    0.8652   -6.0333 H       1  UNL1        0.1030
     61 H          -2.7862   -2.4062   -9.2523 H       1  UNL1        0.1438
     62 H          -3.9430   -1.2298   -9.2742 H       1  UNL1        0.1438
     63 H          -2.8340   -4.3493   -5.2921 H       1  UNL1        0.1048
     64 H           2.7891    1.3707   -1.8760 H       1  UNL1        0.2101
     65 H           3.9112    0.8714    1.7394 H       1  UNL1        0.1030
     66 H           4.3775   -2.6003    5.3663 H       1  UNL1        0.1438
     67 H           5.4749   -3.3166    4.3355 H       1  UNL1        0.1438
     68 H           0.9181   -4.7806    2.4904 H       1  UNL1        0.1048
@<TRIPOS>BOND
     1     1     4    1
     2     1    30    1
     3     1     3    1
     4     1     2    2
     5     3    53    1
     6     4     5    1
     7     5     6    1
     8     5    54    1
     9     5    55    1
    10     6     8    1
    11     6    13    1
    12     6     7    1
    13     8     9    1
    14     9    11    1
    15     9    10    1
    16     9    43    1
    17    11    13    1
    18    11    12    1
    19    11    42    1
    20    13    15    1
    21    13    14    1
    22    16    15    1
    23    16    19    1
    24    16    17    2
    25    16    18    1
    26    18    56    1
    27    19    20    1
    28    20    21    1
    29    20    57    1
    30    20    58    1
    31    21    23    1
    32    21    28    1
    33    21    22    1
    34    23    24    1
    35    24    26    1
    36    24    25    1
    37    24    32    1
    38    26    28    1
    39    26    31    1
    40    26    27    1
    41    28    30    1
    42    28    29    1
    43    31    59    1
    44    32    33   ar
    45    32    41   ar
    46    33    34   ar
    47    33    60    1
    48    34    35   ar
    49    35    36   ar
    50    35    41   ar
    51    36    37    1
    52    36    38   ar
    53    37    61    1
    54    37    62    1
    55    38    39   ar
    56    39    40   ar
    57    39    63    1
    58    40    41   ar
    59    42    64    1
    60    43    44   ar
    61    43    52   ar
    62    44    45   ar
    63    44    65    1
    64    45    46   ar
    65    46    47   ar
    66    46    52   ar
    67    47    48    1
    68    47    49   ar
    69    48    66    1
    70    48    67    1
    71    49    50   ar
    72    50    51   ar
    73    50    68    1
    74    51    52   ar
