REMARK  7 active torsions:
REMARK  status: ('A' for Active; 'I' for Inactive)
REMARK    1  A    between atoms: CB_2  and  CA_1 
REMARK    2  A    between atoms: C_9  and  CA_1 
REMARK    3  A    between atoms: N_12  and  CA_1 
REMARK    4  A    between atoms: CG_3  and  CB_2 
REMARK    5  A    between atoms: CD_4  and  CG_3 
REMARK    6  A    between atoms: NE_5  and  CD_4 
REMARK       I    between atoms: CZ_6  and  NE_5 
REMARK       I    between atoms: NH2_8  and  CZ_6 
REMARK    7  A    between atoms: OXT_11  and  C_9 
ROOT
ATOM      1  CB  ARG d   1       1.230   1.181  -0.623  0.00  0.00     0.045 C 
ENDROOT
BRANCH   1   2
ATOM      2  CA  ARG d   1       1.772  -0.261  -0.639  0.00  0.00     0.280 C 
BRANCH   2   3
ATOM      3  C   ARG d   1       1.961  -0.844   0.753  0.00  0.00     0.171 C 
ATOM      4  O   ARG d   1       1.824  -2.031   1.028  0.00  0.00    -0.648 OA
BRANCH   3   5
ATOM      5  OXT ARG d   1       2.365   0.083   1.654  0.00  0.00    -0.775 OA
ATOM      6  HXT ARG d   1       3.091  -0.246   2.225  0.00  0.00     0.167 HD
ENDBRANCH   3   5
ENDBRANCH   2   3
BRANCH   2   7
ATOM      7  N   ARG d   1       0.844  -1.171  -1.370  0.00  0.00    -0.065 N 
ATOM      8  H1  ARG d   1      -0.074  -1.236  -0.913  0.00  0.00     0.275 HD
ATOM      9  H2  ARG d   1       1.228  -2.124  -1.379  0.00  0.00     0.275 HD
ATOM     10  H3  ARG d   1       0.693  -0.897  -2.347  0.00  0.00     0.275 HD
ENDBRANCH   2   7
ENDBRANCH   1   2
BRANCH   1  11
ATOM     11  CG  ARG d   1       0.866   1.781  -1.998  0.00  0.00     0.022 C 
BRANCH  11  12
ATOM     12  CD  ARG d   1       0.009   3.053  -1.875  0.00  0.00     0.122 C 
BRANCH  12  13
ATOM     13  NE  ARG d   1       0.788   4.146  -1.317  0.00  0.00    -0.366 N 
ATOM     14  CZ  ARG d   1       1.638   4.960  -2.042  0.00  0.00     0.165 C 
ATOM     15  NH1 ARG d   1       2.597   4.546  -2.827  0.00  0.00    -0.274 NA
ATOM     16  NH2 ARG d   1       1.192   6.275  -2.116  0.00  0.00    -0.273 NA
ATOM     17  HH1 ARG d   1       3.226   5.351  -2.982  0.00  0.00     0.189 HD
ATOM     18 1HH2 ARG d   1       1.451   6.816  -1.290  0.00  0.00     0.127 HD
ATOM     19 2HH2 ARG d   1       0.193   6.375  -2.285  0.00  0.00     0.127 HD
ATOM     20  HE  ARG d   1       0.297   4.608  -0.556  0.00  0.00     0.162 HD
ENDBRANCH  12  13
ENDBRANCH  11  12
ENDBRANCH   1  11
TORSDOF 7
