@<TRIPOS>MOLECULE
1NBK_GND_A_35
 27 26 0 0 0
SMALL
GASTEIGER

@<TRIPOS>ATOM
      1 CA          1.7723   -0.2606   -0.6391 C.3     1  ARG1        0.0742
      2 HA          2.7292   -0.3065   -1.1735 H       1  ARG1        0.0968
      3 CB          1.2295    1.1806   -0.6227 C.3     1  ARG1        0.0036
      4 CG          0.8664    1.7809   -1.9977 C.3     1  ARG1       -0.0166
      5 CD          0.0092    3.0526   -1.8748 C.3     1  ARG1        0.0649
      6 NE          0.7882    4.1462   -1.3168 N.pl3   1  ARG1       -0.2761
      7 CZ          1.6379    4.9598   -2.0415 C.cat   1  ARG1        0.3762
      8 NH1         2.5972    4.5464   -2.8272 N.pl3   1  ARG1       -0.1298
      9 NH2         1.1918    6.2746   -2.1164 N.pl3   1  ARG1       -0.2893
     10 C           1.9608   -0.8437    0.7532 C.2     1  ARG1        0.3535
     11 O           1.8237   -2.0307    1.0281 O.2     1  ARG1       -0.2446
     12 OXT         2.3647    0.0832    1.6539 O.3     1  ARG1       -0.4767
     13 N           0.8444   -1.1708   -1.3696 N.4     1  ARG1        0.2288
     14 H1         -0.0740   -1.2365   -0.9132 H       1  ARG1        0.2002
     15 H2          1.2283   -2.1245   -1.3793 H       1  ARG1        0.2002
     16 H3          0.6932   -0.8969   -2.3473 H       1  ARG1        0.2002
     17 HB1         0.3735    1.2631    0.0606 H       1  ARG1        0.0326
     18 HB2         2.0185    1.8290   -0.2129 H       1  ARG1        0.0326
     19 HG1         1.7859    1.9819   -2.5653 H       1  ARG1        0.0298
     20 HG2         0.3122    1.0600   -2.6064 H       1  ARG1        0.0298
     21 HD1        -0.8562    2.8564   -1.2216 H       1  ARG1        0.0655
     22 HD2        -0.3974    3.3178   -2.8575 H       1  ARG1        0.0655
     23 HE          0.2968    4.6080   -0.5561 H       1  ARG1        0.2579
     24 HH1         3.2259    5.3509   -2.9816 H       1  ARG1        0.3062
     25 HH21        1.4507    6.8159   -1.2900 H       1  ARG1        0.2546
     26 HH22        0.1927    6.3749   -2.2849 H       1  ARG1        0.2546
     27 HXT         3.0913   -0.2460    2.2249 H       1  ARG1        0.2953
@<TRIPOS>BOND
     1     1     2    1
     2     3     1    1
     3     4     3    1
     4     5     4    1
     5     6     5    1
     6     7     6    1
     7     8     7    2
     8     9     7    1
     9    10     1    1
    10    11    10    2
    11    12    10    1
    12    13     1    1
    13    13    14    1
    14    13    15    1
    15    13    16    1
    16     3    17    1
    17     3    18    1
    18     4    19    1
    19     4    20    1
    20     5    21    1
    21     5    22    1
    22     6    23    1
    23     8    24    1
    24     9    25    1
    25     9    26    1
    26    12    27    1
