1NBK_GND_A_35
  1228              3D

 27 26  0  0  0  0  0  0  0  0999 V2000
    1.7723   -0.2606   -0.6391 C   0  0  0  0  0  0  0  0  0  0  0  0
    2.7292   -0.3065   -1.1735 H   0  0  0  0  0  0  0  0  0  0  0  0
    1.2295    1.1806   -0.6227 C   0  0  0  0  0  0  0  0  0  0  0  0
    0.8664    1.7809   -1.9977 C   0  0  0  0  0  0  0  0  0  0  0  0
    0.0092    3.0526   -1.8748 C   0  0  0  0  0  0  0  0  0  0  0  0
    0.7882    4.1462   -1.3168 N   0  0  0  0  0  0  0  0  0  0  0  0
    1.6379    4.9598   -2.0415 C   0  0  0  0  0  0  0  0  0  0  0  0
    2.5972    4.5464   -2.8272 N   0  0  0  0  0  0  0  0  0  0  0  0
    1.1918    6.2746   -2.1164 N   0  0  0  0  0  0  0  0  0  0  0  0
    1.9608   -0.8437    0.7532 C   0  0  0  0  0  0  0  0  0  0  0  0
    1.8237   -2.0307    1.0281 O   0  0  0  0  0  0  0  0  0  0  0  0
    2.3647    0.0832    1.6539 O   0  0  0  0  0  0  0  0  0  0  0  0
    0.8444   -1.1708   -1.3696 N   0  3  0  0  0  0  0  0  0  0  0  0
   -0.0740   -1.2365   -0.9132 H   0  0  0  0  0  0  0  0  0  0  0  0
    1.2283   -2.1245   -1.3793 H   0  0  0  0  0  0  0  0  0  0  0  0
    0.6932   -0.8969   -2.3473 H   0  0  0  0  0  0  0  0  0  0  0  0
    0.3735    1.2631    0.0606 H   0  0  0  0  0  0  0  0  0  0  0  0
    2.0185    1.8290   -0.2129 H   0  0  0  0  0  0  0  0  0  0  0  0
    1.7859    1.9819   -2.5653 H   0  0  0  0  0  0  0  0  0  0  0  0
    0.3122    1.0600   -2.6064 H   0  0  0  0  0  0  0  0  0  0  0  0
   -0.8562    2.8564   -1.2216 H   0  0  0  0  0  0  0  0  0  0  0  0
   -0.3974    3.3178   -2.8575 H   0  0  0  0  0  0  0  0  0  0  0  0
    0.2968    4.6080   -0.5561 H   0  0  0  0  0  0  0  0  0  0  0  0
    3.2259    5.3509   -2.9816 H   0  0  0  0  0  0  0  0  0  0  0  0
    1.4507    6.8159   -1.2900 H   0  0  0  0  0  0  0  0  0  0  0  0
    0.1927    6.3749   -2.2849 H   0  0  0  0  0  0  0  0  0  0  0  0
    3.0913   -0.2460    2.2249 H   0  0  0  0  0  0  0  0  0  0  0  0
  1  2  1  0  0  0  0
  3  1  1  0  0  0  0
  4  3  1  0  0  0  0
  5  4  1  0  0  0  0
  6  5  1  0  0  0  0
  7  6  1  0  0  0  0
  8  7  2  0  0  0  0
  9  7  1  0  0  0  0
 10  1  1  0  0  0  0
 11 10  2  0  0  0  0
 12 10  1  0  0  0  0
 13  1  1  0  0  0  0
 13 14  1  0  0  0  0
 13 15  1  0  0  0  0
 13 16  1  0  0  0  0
  3 17  1  0  0  0  0
  3 18  1  0  0  0  0
  4 19  1  0  0  0  0
  4 20  1  0  0  0  0
  5 21  1  0  0  0  0
  5 22  1  0  0  0  0
  6 23  1  0  0  0  0
  8 24  1  0  0  0  0
  9 25  1  0  0  0  0
  9 26  1  0  0  0  0
 12 27  1  0  0  0  0
M  CHG  1  13   1
M  END
>  <energy>
43.282941609057602

$$$$
