2XNZ_3AW_A_1088
  1228              3D

 16 16  0  0  0  0  0  0  0  0999 V2000
   -1.2563    0.0773   -0.1379 N   0  0  0  0  0  0  0  0  0  0  0  0
   -0.3923   -0.9510   -0.2167 C   0  0  0  0  0  0  0  0  0  0  0  0
   -0.9601   -2.3222   -0.4159 C   0  0  0  0  0  0  0  0  0  0  0  0
    0.9472   -0.8430   -0.1626 N   0  0  0  0  0  0  0  0  0  0  0  0
    1.4227    0.4041    0.0119 C   0  0  0  0  0  0  0  0  0  0  0  0
    0.6303    1.4901    0.1242 N   0  0  0  0  0  0  0  0  0  0  0  0
   -0.7006    1.2913    0.0345 C   0  0  0  0  0  0  0  0  0  0  0  0
   -1.5502    2.4094    0.1198 N   0  0  0  0  0  0  0  0  0  0  0  0
    2.8162    0.5846    0.0637 N   0  0  0  0  0  0  0  0  0  0  0  0
   -0.4688   -3.0359    0.2522 H   0  0  0  0  0  0  0  0  0  0  0  0
   -2.0336   -2.3366   -0.2055 H   0  0  0  0  0  0  0  0  0  0  0  0
   -0.8011   -2.6376   -1.4509 H   0  0  0  0  0  0  0  0  0  0  0  0
   -2.3873    2.1824    0.6501 H   0  0  0  0  0  0  0  0  0  0  0  0
   -1.0662    3.1874    0.5610 H   0  0  0  0  0  0  0  0  0  0  0  0
    3.2926   -0.3136    0.0586 H   0  0  0  0  0  0  0  0  0  0  0  0
    3.0754    1.1054    0.8976 H   0  0  0  0  0  0  0  0  0  0  0  0
  2  1  2  0  0  0  0
  3  2  1  0  0  0  0
  4  2  1  0  0  0  0
  5  4  2  0  0  0  0
  6  5  1  0  0  0  0
  7  6  2  0  0  0  0
  7  1  1  0  0  0  0
  8  7  1  0  0  0  0
  9  5  1  0  0  0  0
  3 10  1  0  0  0  0
  3 11  1  0  0  0  0
  3 12  1  0  0  0  0
  8 13  1  0  0  0  0
  8 14  1  0  0  0  0
  9 15  1  0  0  0  0
  9 16  1  0  0  0  0
M  END
>  <energy>
26.856167505113635

$$$$
