@<TRIPOS>MOLECULE
2XNZ_3AW_A_1088
 16 16 0 0 0
SMALL
GASTEIGER

@<TRIPOS>ATOM
      1 N          -1.2563    0.0773   -0.1379 N.ar    1  UNL1       -0.1999
      2 C          -0.3923   -0.9510   -0.2167 C.ar    1  UNL1        0.1331
      3 C          -0.9601   -2.3222   -0.4159 C.3     1  UNL1       -0.0044
      4 N           0.9472   -0.8430   -0.1626 N.ar    1  UNL1       -0.1999
      5 C           1.4227    0.4041    0.0119 C.ar    1  UNL1        0.2171
      6 N           0.6303    1.4901    0.1242 N.ar    1  UNL1       -0.1815
      7 C          -0.7006    1.2913    0.0345 C.ar    1  UNL1        0.2171
      8 N          -1.5502    2.4094    0.1198 N.pl3   1  UNL1       -0.3274
      9 N           2.8162    0.5846    0.0637 N.pl3   1  UNL1       -0.3274
     10 H          -0.4688   -3.0359    0.2522 H       1  UNL1        0.0308
     11 H          -2.0336   -2.3366   -0.2055 H       1  UNL1        0.0308
     12 H          -0.8011   -2.6376   -1.4509 H       1  UNL1        0.0308
     13 H          -2.3873    2.1824    0.6501 H       1  UNL1        0.1452
     14 H          -1.0662    3.1874    0.5610 H       1  UNL1        0.1452
     15 H           3.2926   -0.3136    0.0586 H       1  UNL1        0.1452
     16 H           3.0754    1.1054    0.8976 H       1  UNL1        0.1452
@<TRIPOS>BOND
     1     2     1   ar
     2     3     2    1
     3     4     2   ar
     4     5     4   ar
     5     6     5   ar
     6     7     6   ar
     7     7     1   ar
     8     8     7    1
     9     9     5    1
    10     3    10    1
    11     3    11    1
    12     3    12    1
    13     8    13    1
    14     8    14    1
    15     9    15    1
    16     9    16    1
