REMARK  2 active torsions:
REMARK  status: ('A' for Active; 'I' for Inactive)
REMARK    1  A    between atoms: N_9  and  C_5 
REMARK    2  A    between atoms: N_8  and  C_7 
ROOT
ATOM      1  N   UNL d   1      -1.256   0.077  -0.138  0.00  0.00    -0.203 NA
ATOM      2  C   UNL d   1      -0.392  -0.951  -0.217  0.00  0.00     0.129 A 
ATOM      3  C   UNL d   1      -0.960  -2.322  -0.416  0.00  0.00     0.093 C 
ATOM      4  N   UNL d   1       0.947  -0.843  -0.163  0.00  0.00    -0.203 NA
ATOM      5  C   UNL d   1       1.423   0.404   0.012  0.00  0.00     0.203 A 
ATOM      6  N   UNL d   1       0.630   1.490   0.124  0.00  0.00    -0.188 NA
ATOM      7  C   UNL d   1      -0.701   1.291   0.035  0.00  0.00     0.203 A 
ENDROOT
BRANCH   5   8
ATOM      8  N   UNL d   1       2.816   0.585   0.064  0.00  0.00    -0.270 NA
ATOM      9  H   UNL d   1       3.293  -0.314   0.059  0.00  0.00     0.127 HD
ATOM     10  H   UNL d   1       3.075   1.105   0.898  0.00  0.00     0.127 HD
ENDBRANCH   5   8
BRANCH   7  11
ATOM     11  N   UNL d   1      -1.550   2.409   0.120  0.00  0.00    -0.270 NA
ATOM     12  H   UNL d   1      -2.387   2.182   0.650  0.00  0.00     0.127 HD
ATOM     13  H   UNL d   1      -1.066   3.187   0.561  0.00  0.00     0.127 HD
ENDBRANCH   7  11
TORSDOF 2
