2KD4_PRL_A_17
 OpenBabel03221817243D

 27 29  0  0  0  0  0  0  0  0999 V2000
   -2.4427   -1.3988    0.0086 C   0  0  0  0  0  0  0  0  0  0  0  0
   -3.6345   -0.6768   -0.0249 C   0  0  0  0  0  0  0  0  0  0  0  0
   -3.6143    0.7156    0.0066 C   0  0  0  0  0  0  0  0  0  0  0  0
   -2.3761    1.3687   -0.0279 C   0  0  0  0  0  0  0  0  0  0  0  0
   -1.1686    0.6785    0.0013 C   0  0  0  0  0  0  0  0  0  0  0  0
   -0.0085    1.3629   -0.0081 N   0  0  0  0  0  0  0  0  0  0  0  0
    1.1576    0.6887   -0.0004 C   0  0  0  0  0  0  0  0  0  0  0  0
    2.3586    1.3896   -0.0327 C   0  0  0  0  0  0  0  0  0  0  0  0
    3.6027    0.7475    0.0007 C   0  0  0  0  0  0  0  0  0  0  0  0
    3.6353   -0.6447   -0.0273 C   0  0  0  0  0  0  0  0  0  0  0  0
    2.4497   -1.3773    0.0083 C   0  0  0  0  0  0  0  0  0  0  0  0
    1.2121   -0.7159    0.0252 C   0  0  0  0  0  0  0  0  0  0  0  0
    0.0037   -1.4192    0.0426 C   0  0  0  0  0  0  0  0  0  0  0  0
   -1.2110   -0.7270    0.0255 C   0  0  0  0  0  0  0  0  0  0  0  0
    4.7830    1.4804   -0.1754 N   0  0  0  0  0  0  0  0  0  0  0  0
   -4.8016    1.4385   -0.1650 N   0  0  0  0  0  0  0  0  0  0  0  0
   -2.4815   -2.4854   -0.0007 H   0  0  0  0  0  0  0  0  0  0  0  0
   -4.5788   -1.2122   -0.0794 H   0  0  0  0  0  0  0  0  0  0  0  0
   -2.3404    2.4539   -0.0810 H   0  0  0  0  0  0  0  0  0  0  0  0
    2.3132    2.4743   -0.0875 H   0  0  0  0  0  0  0  0  0  0  0  0
    4.5839   -1.1719   -0.0816 H   0  0  0  0  0  0  0  0  0  0  0  0
    2.4981   -2.4633    0.0012 H   0  0  0  0  0  0  0  0  0  0  0  0
    0.0084   -2.5062    0.0534 H   0  0  0  0  0  0  0  0  0  0  0  0
    4.7230    2.4415    0.1478 H   0  0  0  0  0  0  0  0  0  0  0  0
    5.6174    1.0111    0.1620 H   0  0  0  0  0  0  0  0  0  0  0  0
   -5.6310    0.9608    0.1729 H   0  0  0  0  0  0  0  0  0  0  0  0
   -4.7495    2.3990    0.1615 H   0  0  0  0  0  0  0  0  0  0  0  0
  1  2  2  0  0  0  0
  1 14  1  0  0  0  0
  1 17  1  0  0  0  0
  2  3  1  0  0  0  0
  2 18  1  0  0  0  0
  3  4  2  0  0  0  0
  3 16  1  0  0  0  0
  4  5  1  0  0  0  0
  4 19  1  0  0  0  0
  5  6  2  0  0  0  0
  5 14  1  0  0  0  0
  6  7  1  0  0  0  0
  7  8  2  0  0  0  0
  7 12  1  0  0  0  0
  8  9  1  0  0  0  0
  8 20  1  0  0  0  0
  9 10  2  0  0  0  0
  9 15  1  0  0  0  0
 10 11  1  0  0  0  0
 10 21  1  0  0  0  0
 11 12  2  0  0  0  0
 11 22  1  0  0  0  0
 12 13  1  0  0  0  0
 13 14  2  0  0  0  0
 13 23  1  0  0  0  0
 15 24  1  0  0  0  0
 15 25  1  0  0  0  0
 16 26  1  0  0  0  0
 16 27  1  0  0  0  0
M  END
$$$$
