@<TRIPOS>MOLECULE
2KD4_PRL_A_17
 27 29 0 0 0
SMALL
GASTEIGER

@<TRIPOS>ATOM
      1 C          -2.4427   -1.3988    0.0086 C.ar    1  UNL1       -0.0508
      2 C          -3.6345   -0.6768   -0.0249 C.ar    1  UNL1       -0.0404
      3 C          -3.6143    0.7156    0.0066 C.ar    1  UNL1        0.0266
      4 C          -2.3761    1.3687   -0.0279 C.ar    1  UNL1       -0.0150
      5 C          -1.1686    0.6785    0.0013 C.ar    1  UNL1        0.0734
      6 N          -0.0085    1.3629   -0.0081 N.ar    1  UNL1       -0.2466
      7 C           1.1576    0.6887   -0.0004 C.ar    1  UNL1        0.0734
      8 C           2.3586    1.3896   -0.0327 C.ar    1  UNL1       -0.0150
      9 C           3.6027    0.7475    0.0007 C.ar    1  UNL1        0.0266
     10 C           3.6353   -0.6447   -0.0273 C.ar    1  UNL1       -0.0404
     11 C           2.4497   -1.3773    0.0083 C.ar    1  UNL1       -0.0508
     12 C           1.2121   -0.7159    0.0252 C.ar    1  UNL1        0.0011
     13 C           0.0037   -1.4192    0.0426 C.ar    1  UNL1       -0.0434
     14 C          -1.2110   -0.7270    0.0255 C.ar    1  UNL1        0.0011
     15 N           4.7830    1.4804   -0.1754 N.pl3   1  UNL1       -0.3579
     16 N          -4.8016    1.4385   -0.1650 N.pl3   1  UNL1       -0.3579
     17 H          -2.4815   -2.4854   -0.0007 H       1  UNL1        0.0625
     18 H          -4.5788   -1.2122   -0.0794 H       1  UNL1        0.0636
     19 H          -2.3404    2.4539   -0.0810 H       1  UNL1        0.0657
     20 H           2.3132    2.4743   -0.0875 H       1  UNL1        0.0657
     21 H           4.5839   -1.1719   -0.0816 H       1  UNL1        0.0636
     22 H           2.4981   -2.4633    0.0012 H       1  UNL1        0.0625
     23 H           0.0084   -2.5062    0.0534 H       1  UNL1        0.0631
     24 H           4.7230    2.4415    0.1478 H       1  UNL1        0.1423
     25 H           5.6174    1.0111    0.1620 H       1  UNL1        0.1423
     26 H          -5.6310    0.9608    0.1729 H       1  UNL1        0.1423
     27 H          -4.7495    2.3990    0.1615 H       1  UNL1        0.1423
@<TRIPOS>BOND
     1     1     2   ar
     2     1    14   ar
     3     1    17    1
     4     2     3   ar
     5     2    18    1
     6     3     4   ar
     7     3    16    1
     8     4     5   ar
     9     4    19    1
    10     5     6   ar
    11     5    14   ar
    12     6     7   ar
    13     7     8   ar
    14     7    12   ar
    15     8     9   ar
    16     8    20    1
    17     9    10   ar
    18     9    15    1
    19    10    11   ar
    20    10    21    1
    21    11    12   ar
    22    11    22    1
    23    12    13   ar
    24    13    14   ar
    25    13    23    1
    26    15    24    1
    27    15    25    1
    28    16    26    1
    29    16    27    1
