4P95_MES_A_601
 OpenBabel10091713583D
Coordinates from PDB:4P95:A:601 Model:1 without hydrogens
 12 12  0  0  0  0  0  0  0  0999 V2000
    2.8690    2.8630  -29.2560 O   0  0  0  0  0  0  0  0  0  0  0  0
    4.2040    2.6880  -29.5500 C   0  0  0  0  0  0  0  0  0  0  0  0
    4.4410    1.9170  -30.7830 C   0  0  0  0  0  0  0  0  0  0  0  0
    3.6760    0.6630  -30.7980 N   0  3  0  0  0  0  0  0  0  0  0  0
    2.2870    0.9250  -30.5210 C   0  0  0  0  0  0  0  0  0  0  0  0
    2.1230    1.7180  -29.2660 C   0  0  0  0  0  0  0  0  0  0  0  0
    3.8380    0.0100  -32.0620 C   0  0  0  0  0  0  0  0  0  0  0  0
    5.3440   -0.2450  -32.3240 C   0  0  0  0  0  0  0  0  0  0  0  0
    5.5550   -1.2600  -33.8010 S   0  0  0  0  0  0  0  0  0  0  0  0
    4.9910   -2.6250  -33.5750 O   0  0  0  0  0  0  0  0  0  0  0  0
    7.0200   -1.3730  -34.0870 O   0  0  0  0  0  0  0  0  0  0  0  0
    4.8810   -0.6130  -34.9550 O   0  5  0  0  0  0  0  0  0  0  0  0
  1  2  1  0  0  0  0
  1  6  1  0  0  0  0
  2  3  1  0  0  0  0
  3  4  1  0  0  0  0
  4  5  1  0  0  0  0
  4  7  1  0  0  0  0
  5  6  1  0  0  0  0
  7  8  1  0  0  0  0
  8  9  1  0  0  0  0
  9 10  2  0  0  0  0
  9 11  2  0  0  0  0
  9 12  1  0  0  0  0
A    1
O1
A    2
C2
A    3
C3
A    4
N4
A    5
C5
A    6
C6
A    7
C7
A    8
C8
A    9
S
A   10
O1S
A   11
O2S
A   12
O3S
M  CHG  2   4   1  12  -1
M  END
>  <InstanceId>
4P95_MES_A_601

>  <ChemCompId>
MES

>  <PdbId>
4P95

>  <ChainId>
A

>  <ResidueNumber>
601

>  <InsertionCode>


>  <Model>
1

>  <AltIds>


>  <MissingHeavyAtoms>
0

>  <ObservedFormula>
C6 N O4 S

>  <Name>
2-(N-MORPHOLINO)-ETHANESULFONIC ACID

>  <SystematicName>
2-morpholin-4-ium-4-ylethanesulfonate

>  <Synonyms>


>  <Type>
NON-POLYMER

>  <Formula>
C6 H13 N O4 S

>  <MolecularWeight>
195.237

>  <ModifiedDate>
2011-06-04

>  <Parent>


>  <OneLetterCode>


>  <SubcomponentList>


>  <AmbiguousFlag>
N

>  <InChI>
InChI=1S/C6H13NO4S/c8-12(9,10)6-3-7-1-4-11-5-2-7/h1-6H2,(H,8,9,10)

>  <InChIKey>
SXGZJKUKBWWHRA-UHFFFAOYSA-N

>  <SMILES>
C1COCC[NH+]1CCS(=O)(=O)[O-]

$$$$
