REMARK  3 active torsions:
REMARK  status: ('A' for Active; 'I' for Inactive)
REMARK    1  A    between atoms: N_4  and  C_7 
REMARK    2  A    between atoms: C_7  and  C_8 
REMARK    3  A    between atoms: C_8  and  S_9 
ROOT
ATOM      1  O   UNL d   1       2.869   2.863 -29.256  0.00  0.00    -0.350 OA
ATOM      2  C   UNL d   1       4.204   2.688 -29.550  0.00  0.00     0.178 C 
ATOM      3  C   UNL d   1       4.441   1.917 -30.783  0.00  0.00     0.282 C 
ATOM      4  N   UNL d   1       3.676   0.663 -30.798  0.00  0.00     0.143 N 
ATOM      5  C   UNL d   1       2.287   0.925 -30.521  0.00  0.00     0.282 C 
ATOM      6  C   UNL d   1       2.123   1.718 -29.266  0.00  0.00     0.178 C 
ENDROOT
BRANCH   4   7
ATOM      7  C   UNL d   1       3.838   0.010 -32.062  0.00  0.00     0.271 C 
BRANCH   7   8
ATOM      8  C   UNL d   1       5.344  -0.245 -32.324  0.00  0.00     0.181 C 
BRANCH   8   9
ATOM      9  S   UNL d   1       5.555  -1.260 -33.801  0.00  0.00     0.118 S 
ATOM     10  O   UNL d   1       4.991  -2.625 -33.575  0.00  0.00    -0.594 OA
ATOM     11  O   UNL d   1       7.020  -1.373 -34.087  0.00  0.00    -0.594 OA
ATOM     12  O   UNL d   1       4.881  -0.613 -34.955  0.00  0.00    -0.594 OA
ENDBRANCH   8   9
ENDBRANCH   7   8
ENDBRANCH   4   7
TORSDOF 3
