4P95_MES_A_601
 OpenBabel10091713583D
Coordinates from PDB:4P95:A:601 Model:1 without hydrogens
 25 25  0  0  0  0  0  0  0  0999 V2000
    2.8690    2.8630  -29.2560 O   0  0  0  0  0  0  0  0  0  0  0  0
    4.2040    2.6880  -29.5500 C   0  0  0  0  0  0  0  0  0  0  0  0
    4.4410    1.9170  -30.7830 C   0  0  0  0  0  0  0  0  0  0  0  0
    3.6760    0.6630  -30.7980 N   0  3  0  0  0  0  0  0  0  0  0  0
    2.2870    0.9250  -30.5210 C   0  0  0  0  0  0  0  0  0  0  0  0
    2.1230    1.7180  -29.2660 C   0  0  0  0  0  0  0  0  0  0  0  0
    3.8380    0.0100  -32.0620 C   0  0  0  0  0  0  0  0  0  0  0  0
    5.3440   -0.2450  -32.3240 C   0  0  0  0  0  0  0  0  0  0  0  0
    5.5550   -1.2600  -33.8010 S   0  0  0  0  0  0  0  0  0  0  0  0
    4.9910   -2.6250  -33.5750 O   0  0  0  0  0  0  0  0  0  0  0  0
    7.0200   -1.3730  -34.0870 O   0  0  0  0  0  0  0  0  0  0  0  0
    4.8810   -0.6130  -34.9550 O   0  0  0  0  0  1  0  0  0  0  0  0
    4.6650    2.1713  -28.7343 H   0  0  0  0  0  0  0  0  0  0  0  0
    4.6213    3.6612  -29.7037 H   0  0  0  0  0  0  0  0  0  0  0  0
    5.4837    1.6874  -30.8528 H   0  0  0  0  0  0  0  0  0  0  0  0
    4.1215    2.5114  -31.6134 H   0  0  0  0  0  0  0  0  0  0  0  0
    4.0298    0.0426  -30.0698 H   0  0  0  0  0  0  0  0  0  0  0  0
    1.7713   -0.0065  -30.4144 H   0  0  0  0  0  0  0  0  0  0  0  0
    1.8821    1.4916  -31.3333 H   0  0  0  0  0  0  0  0  0  0  0  0
    1.0914    1.9824  -29.1622 H   0  0  0  0  0  0  0  0  0  0  0  0
    2.4628    1.1078  -28.4554 H   0  0  0  0  0  0  0  0  0  0  0  0
    3.4415    0.6314  -32.8376 H   0  0  0  0  0  0  0  0  0  0  0  0
    3.3155   -0.9237  -32.0500 H   0  0  0  0  0  0  0  0  0  0  0  0
    5.7684   -0.7521  -31.4828 H   0  0  0  0  0  0  0  0  0  0  0  0
    5.8370    0.6932  -32.4711 H   0  0  0  0  0  0  0  0  0  0  0  0
  1  2  1  0  0  0  0
  1  6  1  0  0  0  0
  2  3  1  0  0  0  0
  2 13  1  0  0  0  0
  2 14  1  0  0  0  0
  3  4  1  0  0  0  0
  3 15  1  0  0  0  0
  3 16  1  0  0  0  0
  4  5  1  0  0  0  0
  4  7  1  0  0  0  0
  4 17  1  0  0  0  0
  5  6  1  0  0  0  0
  5 18  1  0  0  0  0
  5 19  1  0  0  0  0
  6 20  1  0  0  0  0
  6 21  1  0  0  0  0
  7  8  1  0  0  0  0
  7 22  1  0  0  0  0
  7 23  1  0  0  0  0
  8  9  1  0  0  0  0
  8 24  1  0  0  0  0
  8 25  1  0  0  0  0
  9 10  2  0  0  0  0
  9 11  2  0  0  0  0
  9 12  1  0  0  0  0
M  CHG  1   4   1
M  END
$$$$
