@<TRIPOS>MOLECULE
4P95_MES_A_601
 12 12 0 0 0
SMALL
GASTEIGER
****
Coordinates from PDB:4P95:A:601 Model:1 without hydrogens
@<TRIPOS>ATOM
      1 O           2.8690    2.8630  -29.2560 O.3     1  UNL1       -0.3411
      2 C           4.2040    2.6880  -29.5500 C.3     1  UNL1        0.2047
      3 C           4.4410    1.9170  -30.7830 C.3     1  UNL1        0.1714
      4 N           3.6760    0.6630  -30.7980 N.4     1  UNL1        0.3826
      5 C           2.2870    0.9250  -30.5210 C.3     1  UNL1        0.1714
      6 C           2.1230    1.7180  -29.2660 C.3     1  UNL1        0.2047
      7 C           3.8380    0.0100  -32.0620 C.3     1  UNL1        0.1624
      8 C           5.3440   -0.2450  -32.3240 C.3     1  UNL1        0.1881
      9 S           5.5550   -1.2600  -33.8010 S.3     1  UNL1       -0.1010
     10 O           4.9910   -2.6250  -33.5750 O.2     1  UNL1       -0.3712
     11 O           7.0200   -1.3730  -34.0870 O.2     1  UNL1       -0.3712
     12 O           4.8810   -0.6130  -34.9550 O.co2   1  UNL1       -0.2906
@<TRIPOS>BOND
     1     1     2    1
     2     1     6    1
     3     2     3    1
     4     3     4    1
     5     4     5    1
     6     4     7    1
     7     5     6    1
     8     7     8    1
     9     8     9    1
    10     9    10    2
    11     9    11    2
    12     9    12    1
