REMARK  5 active torsions:
REMARK  status: ('A' for Active; 'I' for Inactive)
REMARK    1  A    between atoms: C_21  and  C_5 
REMARK    2  A    between atoms: C_15  and  N_8 
REMARK    3  A    between atoms: C_16  and  C_15 
REMARK    4  A    between atoms: C_17  and  C_16 
REMARK    5  A    between atoms: N_18  and  C_17 
ROOT
ATOM      1  S   UNL d   1       1.907  -3.738   0.690  0.00  0.00    -0.086 SA
ATOM      2  C   UNL d   1       2.450  -2.040   0.882  0.00  0.00     0.032 A 
ATOM      3  C   UNL d   1       3.819  -1.760   0.954  0.00  0.00     0.022 A 
ATOM      4  C   UNL d   1       4.253  -0.441   1.049  0.00  0.00     0.016 A 
ATOM      5  C   UNL d   1       3.310   0.584   1.099  0.00  0.00     0.011 A 
ATOM      6  C   UNL d   1       1.938   0.313   1.020  0.00  0.00     0.046 A 
ATOM      7  C   UNL d   1       1.480  -1.017   0.979  0.00  0.00     0.053 A 
ATOM      8  N   UNL d   1       0.142  -1.289   0.559  0.00  0.00    -0.345 N 
ATOM      9  C   UNL d   1      -0.169  -2.258  -0.420  0.00  0.00     0.052 A 
ATOM     10  C   UNL d   1       0.630  -3.421  -0.535  0.00  0.00     0.032 A 
ATOM     11  C   UNL d   1       0.412  -4.343  -1.562  0.00  0.00     0.021 A 
ATOM     12  C   UNL d   1      -0.598  -4.118  -2.494  0.00  0.00     0.002 A 
ATOM     13  C   UNL d   1      -1.402  -2.985  -2.392  0.00  0.00     0.002 A 
ATOM     14  C   UNL d   1      -1.192  -2.065  -1.362  0.00  0.00     0.031 A 
ENDROOT
BRANCH   8  15
ATOM     15  C   UNL d   1      -0.966  -0.614   1.267  0.00  0.00     0.131 C 
BRANCH  15  16
ATOM     16  C   UNL d   1      -0.947  -0.888   2.780  0.00  0.00     0.050 C 
BRANCH  16  17
ATOM     17  C   UNL d   1      -2.232  -0.378   3.467  0.00  0.00     0.273 C 
BRANCH  17  18
ATOM     18  N   UNL d   1      -2.051   0.617   4.528  0.00  0.00     0.080 N 
ATOM     19  C   UNL d   1      -1.639   1.923   4.030  0.00  0.00     0.309 C 
ATOM     20  C   UNL d   1      -1.243   0.155   5.646  0.00  0.00     0.309 C 
ENDBRANCH  17  18
ENDBRANCH  16  17
ENDBRANCH  15  16
ENDBRANCH   8  15
BRANCH   5  21
ATOM     21  C   UNL d   1       3.754   1.983   0.928  0.00  0.00     0.155 C 
ATOM     22  O   UNL d   1       3.478   2.807   1.792  0.00  0.00    -0.293 OA
ATOM     23  C   UNL d   1       4.561   2.316  -0.299  0.00  0.00     0.096 C 
ENDBRANCH   5  21
TORSDOF 5
