@<TRIPOS>MOLECULE
1LVJ_PMZ_A_47
 45 47 0 0 0
SMALL
GASTEIGER

@<TRIPOS>ATOM
      1 S           1.9074   -3.7380    0.6898 S.3     1  UNL1       -0.0857
      2 C           2.4499   -2.0404    0.8816 C.ar    1  UNL1        0.0341
      3 C           3.8186   -1.7599    0.9539 C.ar    1  UNL1       -0.0455
      4 C           4.2527   -0.4412    1.0488 C.ar    1  UNL1       -0.0501
      5 C           3.3097    0.5835    1.0987 C.ar    1  UNL1        0.0189
      6 C           1.9383    0.3128    1.0201 C.ar    1  UNL1       -0.0288
      7 C           1.4797   -1.0169    0.9789 C.ar    1  UNL1        0.0485
      8 N           0.1421   -1.2888    0.5594 N.pl3   1  UNL1       -0.2983
      9 C          -0.1685   -2.2577   -0.4198 C.ar    1  UNL1        0.0479
     10 C           0.6301   -3.4206   -0.5346 C.ar    1  UNL1        0.0341
     11 C           0.4125   -4.3435   -1.5625 C.ar    1  UNL1       -0.0462
     12 C          -0.5983   -4.1183   -2.4943 C.ar    1  UNL1       -0.0606
     13 C          -1.4017   -2.9852   -2.3918 C.ar    1  UNL1       -0.0599
     14 C          -1.1916   -2.0647   -1.3621 C.ar    1  UNL1       -0.0393
     15 C          -0.9656   -0.6137    1.2669 C.3     1  UNL1        0.0185
     16 C          -0.9466   -0.8885    2.7801 C.3     1  UNL1       -0.0240
     17 C          -2.2325   -0.3781    3.4673 C.3     1  UNL1       -0.0003
     18 N          -2.0512    0.6172    4.5279 N.3     1  UNL1       -0.3083
     19 C          -1.6393    1.9234    4.0297 C.3     1  UNL1       -0.0130
     20 C          -1.2426    0.1547    5.6464 C.3     1  UNL1       -0.0130
     21 C           3.7544    1.9828    0.9282 C.2     1  UNL1        0.1602
     22 O           3.4776    2.8067    1.7916 O.2     1  UNL1       -0.2924
     23 C           4.5605    2.3162   -0.2991 C.3     1  UNL1       -0.0014
     24 H           4.5570   -2.5544    0.8857 H       1  UNL1        0.0629
     25 H           5.3172   -0.2254    1.0358 H       1  UNL1        0.0625
     26 H           1.2547    1.0870    1.3915 H       1  UNL1        0.0643
     27 H           1.0276   -5.2350   -1.6548 H       1  UNL1        0.0629
     28 H          -0.7557   -4.8227   -3.3057 H       1  UNL1        0.0618
     29 H          -2.1809   -2.8045   -3.1272 H       1  UNL1        0.0618
     30 H          -1.8083   -1.1691   -1.3407 H       1  UNL1        0.0636
     31 H          -0.9310    0.4644    1.0731 H       1  UNL1        0.0468
     32 H          -1.9356   -0.9567    0.8884 H       1  UNL1        0.0468
     33 H          -0.8676   -1.9702    2.9530 H       1  UNL1        0.0293
     34 H          -0.0562   -0.4348    3.2282 H       1  UNL1        0.0293
     35 H          -2.7634   -1.2399    3.8934 H       1  UNL1        0.0427
     36 H          -2.9283    0.0342    2.7250 H       1  UNL1        0.0427
     37 H          -2.5043    2.4469    3.6065 H       1  UNL1        0.0391
     38 H          -0.8695    1.8583    3.2528 H       1  UNL1        0.0391
     39 H          -1.2455    2.5577    4.8328 H       1  UNL1        0.0391
     40 H          -0.1727    0.3199    5.4827 H       1  UNL1        0.0391
     41 H          -1.3965   -0.9110    5.8461 H       1  UNL1        0.0391
     42 H          -1.5310    0.6932    6.5556 H       1  UNL1        0.0391
     43 H           5.6224    2.1867   -0.0710 H       1  UNL1        0.0309
     44 H           4.3837    3.3583   -0.5787 H       1  UNL1        0.0309
     45 H           4.2862    1.6738   -1.1400 H       1  UNL1        0.0309
@<TRIPOS>BOND
     1     2     1    1
     2     3     2   ar
     3     4     3   ar
     4     5     4   ar
     5     6     5   ar
     6     7     6   ar
     7     7     2   ar
     8     8     7    1
     9     9     8    1
    10    10     9   ar
    11    10     1    1
    12    11    10   ar
    13    12    11   ar
    14    13    12   ar
    15    14    13   ar
    16    14     9   ar
    17    15     8    1
    18    16    15    1
    19    17    16    1
    20    18    17    1
    21    19    18    1
    22    20    18    1
    23    21     5    1
    24    22    21    2
    25    23    21    1
    26     3    24    1
    27     4    25    1
    28     6    26    1
    29    11    27    1
    30    12    28    1
    31    13    29    1
    32    14    30    1
    33    15    31    1
    34    15    32    1
    35    16    33    1
    36    16    34    1
    37    17    35    1
    38    17    36    1
    39    19    37    1
    40    19    38    1
    41    19    39    1
    42    20    40    1
    43    20    41    1
    44    20    42    1
    45    23    43    1
    46    23    44    1
    47    23    45    1
