1LVJ_PMZ_A_47
  1228              3D

 45 47  0  0  0  0  0  0  0  0999 V2000
    1.9074   -3.7380    0.6898 S   0  0  0  0  0  0  0  0  0  0  0  0
    2.4499   -2.0404    0.8816 C   0  0  0  0  0  0  0  0  0  0  0  0
    3.8186   -1.7599    0.9539 C   0  0  0  0  0  0  0  0  0  0  0  0
    4.2527   -0.4412    1.0488 C   0  0  0  0  0  0  0  0  0  0  0  0
    3.3097    0.5835    1.0987 C   0  0  0  0  0  0  0  0  0  0  0  0
    1.9383    0.3128    1.0201 C   0  0  0  0  0  0  0  0  0  0  0  0
    1.4797   -1.0169    0.9789 C   0  0  0  0  0  0  0  0  0  0  0  0
    0.1421   -1.2888    0.5594 N   0  0  0  0  0  0  0  0  0  0  0  0
   -0.1685   -2.2577   -0.4198 C   0  0  0  0  0  0  0  0  0  0  0  0
    0.6301   -3.4206   -0.5346 C   0  0  0  0  0  0  0  0  0  0  0  0
    0.4125   -4.3435   -1.5625 C   0  0  0  0  0  0  0  0  0  0  0  0
   -0.5983   -4.1183   -2.4943 C   0  0  0  0  0  0  0  0  0  0  0  0
   -1.4017   -2.9852   -2.3918 C   0  0  0  0  0  0  0  0  0  0  0  0
   -1.1916   -2.0647   -1.3621 C   0  0  0  0  0  0  0  0  0  0  0  0
   -0.9656   -0.6137    1.2669 C   0  0  0  0  0  0  0  0  0  0  0  0
   -0.9466   -0.8885    2.7801 C   0  0  0  0  0  0  0  0  0  0  0  0
   -2.2325   -0.3781    3.4673 C   0  0  0  0  0  0  0  0  0  0  0  0
   -2.0512    0.6172    4.5279 N   0  0  0  0  0  0  0  0  0  0  0  0
   -1.6393    1.9234    4.0297 C   0  0  0  0  0  0  0  0  0  0  0  0
   -1.2426    0.1547    5.6464 C   0  0  0  0  0  0  0  0  0  0  0  0
    3.7544    1.9828    0.9282 C   0  0  0  0  0  0  0  0  0  0  0  0
    3.4776    2.8067    1.7916 O   0  0  0  0  0  0  0  0  0  0  0  0
    4.5605    2.3162   -0.2991 C   0  0  0  0  0  0  0  0  0  0  0  0
    4.5570   -2.5544    0.8857 H   0  0  0  0  0  0  0  0  0  0  0  0
    5.3172   -0.2254    1.0358 H   0  0  0  0  0  0  0  0  0  0  0  0
    1.2547    1.0870    1.3915 H   0  0  0  0  0  0  0  0  0  0  0  0
    1.0276   -5.2350   -1.6548 H   0  0  0  0  0  0  0  0  0  0  0  0
   -0.7557   -4.8227   -3.3057 H   0  0  0  0  0  0  0  0  0  0  0  0
   -2.1809   -2.8045   -3.1272 H   0  0  0  0  0  0  0  0  0  0  0  0
   -1.8083   -1.1691   -1.3407 H   0  0  0  0  0  0  0  0  0  0  0  0
   -0.9310    0.4644    1.0731 H   0  0  0  0  0  0  0  0  0  0  0  0
   -1.9356   -0.9567    0.8884 H   0  0  0  0  0  0  0  0  0  0  0  0
   -0.8676   -1.9702    2.9530 H   0  0  0  0  0  0  0  0  0  0  0  0
   -0.0562   -0.4348    3.2282 H   0  0  0  0  0  0  0  0  0  0  0  0
   -2.7634   -1.2399    3.8934 H   0  0  0  0  0  0  0  0  0  0  0  0
   -2.9283    0.0342    2.7250 H   0  0  0  0  0  0  0  0  0  0  0  0
   -2.5043    2.4469    3.6065 H   0  0  0  0  0  0  0  0  0  0  0  0
   -0.8695    1.8583    3.2528 H   0  0  0  0  0  0  0  0  0  0  0  0
   -1.2455    2.5577    4.8328 H   0  0  0  0  0  0  0  0  0  0  0  0
   -0.1727    0.3199    5.4827 H   0  0  0  0  0  0  0  0  0  0  0  0
   -1.3965   -0.9110    5.8461 H   0  0  0  0  0  0  0  0  0  0  0  0
   -1.5310    0.6932    6.5556 H   0  0  0  0  0  0  0  0  0  0  0  0
    5.6224    2.1867   -0.0710 H   0  0  0  0  0  0  0  0  0  0  0  0
    4.3837    3.3583   -0.5787 H   0  0  0  0  0  0  0  0  0  0  0  0
    4.2862    1.6738   -1.1400 H   0  0  0  0  0  0  0  0  0  0  0  0
  2  1  1  0  0  0  0
  3  2  2  0  0  0  0
  4  3  1  0  0  0  0
  5  4  2  0  0  0  0
  6  5  1  0  0  0  0
  7  6  2  0  0  0  0
  7  2  1  0  0  0  0
  8  7  1  0  0  0  0
  9  8  1  0  0  0  0
 10  9  2  0  0  0  0
 10  1  1  0  0  0  0
 11 10  1  0  0  0  0
 12 11  2  0  0  0  0
 13 12  1  0  0  0  0
 14 13  2  0  0  0  0
 14  9  1  0  0  0  0
 15  8  1  0  0  0  0
 16 15  1  0  0  0  0
 17 16  1  0  0  0  0
 18 17  1  0  0  0  0
 19 18  1  0  0  0  0
 20 18  1  0  0  0  0
 21  5  1  0  0  0  0
 22 21  2  0  0  0  0
 23 21  1  0  0  0  0
  3 24  1  0  0  0  0
  4 25  1  0  0  0  0
  6 26  1  0  0  0  0
 11 27  1  0  0  0  0
 12 28  1  0  0  0  0
 13 29  1  0  0  0  0
 14 30  1  0  0  0  0
 15 31  1  0  0  0  0
 15 32  1  0  0  0  0
 16 33  1  0  0  0  0
 16 34  1  0  0  0  0
 17 35  1  0  0  0  0
 17 36  1  0  0  0  0
 19 37  1  0  0  0  0
 19 38  1  0  0  0  0
 19 39  1  0  0  0  0
 20 40  1  0  0  0  0
 20 41  1  0  0  0  0
 20 42  1  0  0  0  0
 23 43  1  0  0  0  0
 23 44  1  0  0  0  0
 23 45  1  0  0  0  0
M  END
>  <energy>
103.88925681794254

$$$$
