REMARK  1 active torsions:
REMARK  status: ('A' for Active; 'I' for Inactive)
REMARK    1  A    between atoms: N_13  and  C_12 
ROOT
ATOM      1  N   UNL d   1       1.824  -0.226  -0.082  0.00  0.00    -0.297 N 
ATOM      2  H   UNL d   1       2.815  -0.435  -0.161  0.00  0.00     0.171 HD
ATOM      3  C   UNL d   1       0.932  -1.284  -0.165  0.00  0.00     0.263 A 
ATOM      4  O   UNL d   1       1.246  -2.456  -0.330  0.00  0.00    -0.267 OA
ATOM      5  C   UNL d   1      -0.474  -0.874  -0.049  0.00  0.00     0.097 A 
ATOM      6  C   UNL d   1      -1.525  -1.769  -0.064  0.00  0.00     0.139 A 
ATOM      7  N   UNL d   1      -2.813  -1.388   0.054  0.00  0.00    -0.253 NA
ATOM      8  C   UNL d   1      -3.006  -0.062   0.204  0.00  0.00     0.235 A 
ATOM      9  N   UNL d   1      -2.059   0.896   0.244  0.00  0.00    -0.221 NA
ATOM     10  C   UNL d   1      -0.786   0.465   0.122  0.00  0.00     0.171 A 
ATOM     11  N   UNL d   1       0.200   1.462   0.183  0.00  0.00    -0.199 NA
ATOM     12  C   UNL d   1       1.449   1.105   0.080  0.00  0.00     0.181 A 
ENDROOT
BRANCH  12  13
ATOM     13  N   UNL d   1       2.480   2.020   0.114  0.00  0.00    -0.272 NA
ATOM     14  H   UNL d   1       2.328   2.833  -0.483  0.00  0.00     0.127 HD
ATOM     15  H   UNL d   1       3.389   1.624  -0.113  0.00  0.00     0.127 HD
ENDBRANCH  12  13
TORSDOF 1
