@<TRIPOS>MOLECULE
4LX6_29H_A_601
 17 18 0 0 0
SMALL
GASTEIGER

@<TRIPOS>ATOM
      1 N           1.8240   -0.2263   -0.0815 N.ar    1  UNL1       -0.2947
      2 H           2.8147   -0.4347   -0.1606 H       1  UNL1        0.1716
      3 C           0.9317   -1.2839   -0.1648 C.ar    1  UNL1        0.2634
      4 O           1.2465   -2.4558   -0.3299 O.2     1  UNL1       -0.2670
      5 C          -0.4745   -0.8744   -0.0490 C.ar    1  UNL1        0.1015
      6 C          -1.5250   -1.7693   -0.0637 C.ar    1  UNL1        0.0452
      7 N          -2.8127   -1.3876    0.0540 N.ar    1  UNL1       -0.2428
      8 C          -3.0063   -0.0623    0.2043 C.ar    1  UNL1        0.1183
      9 N          -2.0595    0.8964    0.2437 N.ar    1  UNL1       -0.2158
     10 C          -0.7860    0.4646    0.1218 C.ar    1  UNL1        0.1715
     11 N           0.1997    1.4625    0.1829 N.ar    1  UNL1       -0.1962
     12 C           1.4490    1.1052    0.0799 C.ar    1  UNL1        0.1949
     13 N           2.4799    2.0203    0.1140 N.pl3   1  UNL1       -0.3289
     14 H          -1.3710   -2.8358   -0.1873 H       1  UNL1        0.0839
     15 H          -4.0334    0.2685    0.3057 H       1  UNL1        0.1047
     16 H           2.3275    2.8327   -0.4826 H       1  UNL1        0.1451
     17 H           3.3890    1.6236   -0.1133 H       1  UNL1        0.1451
@<TRIPOS>BOND
     1     1     2    1
     2     3     1   ar
     3     4     3    2
     4     5     3   ar
     5     6     5   ar
     6     7     6   ar
     7     8     7   ar
     8     9     8   ar
     9    10     9   ar
    10    10     5   ar
    11    11    10   ar
    12    12    11   ar
    13    12     1   ar
    14    13    12    1
    15     6    14    1
    16     8    15    1
    17    13    16    1
    18    13    17    1
