ligands/ligand.pdb
 OpenBabel10091713573D

 32 34  0  0  1  0  0  0  0  0999 V2000
   -8.1980    0.4060   -7.7820 C   0  0  2  0  0  0  0  0  0  0  0  0
   -7.6150    1.7580   -8.1810 C   0  0  1  0  0  0  0  0  0  0  0  0
   -6.9670    1.6310   -9.5600 C   0  0  2  0  0  0  0  0  0  0  0  0
   -5.9290    0.5010   -9.5740 C   0  0  1  0  0  0  0  0  0  0  0  0
   -6.5550   -0.7920   -9.0400 C   0  0  1  0  0  0  0  0  0  0  0  0
   -5.5740   -1.9410   -8.8740 C   0  0  0  0  0  0  0  0  0  0  0  0
   -8.6460    2.7410   -8.2200 O   0  0  0  0  0  0  0  0  0  0  0  0
   -6.3150    2.8510  -10.1330 N   0  0  0  0  0  0  0  0  0  0  0  0
   -5.4770    0.3050  -10.9080 O   0  0  0  0  0  0  0  0  0  0  0  0
   -7.1560   -0.5510   -7.7520 O   0  0  0  0  0  0  0  0  0  0  0  0
   -6.2280   -3.0950   -8.3560 O   0  0  0  0  0  0  0  0  0  0  0  0
  -10.7210   -4.7500   -6.7390 C   0  0  2  0  0  0  0  0  0  0  0  0
   -9.5210   -5.6580   -7.0280 C   0  0  1  0  0  0  0  0  0  0  0  0
   -9.9770   -7.0200   -7.5520 C   0  0  0  0  0  0  0  0  0  0  0  0
  -10.9900   -7.6080   -6.5830 C   0  0  1  0  0  0  0  0  0  0  0  0
  -12.1610   -6.6510   -6.4430 C   0  0  1  0  0  0  0  0  0  0  0  0
  -13.2130   -7.1870   -5.4890 C   0  0  0  0  0  0  0  0  0  0  0  0
   -8.6370   -5.0070   -8.0470 N   0  0  0  0  0  0  0  0  0  0  0  0
  -13.6660   -8.5270   -6.0010 N   0  0  0  0  0  0  0  0  0  0  0  0
  -11.4470   -8.8690   -7.0510 O   0  0  0  0  0  0  0  0  0  0  0  0
  -11.6900   -5.3970   -5.9210 O   0  0  0  0  0  0  0  0  0  0  0  0
  -11.5570   -0.1590   -9.0820 C   0  0  2  0  0  0  0  0  0  0  0  0
  -12.8250   -1.0000   -8.8820 C   0  0  0  0  0  0  0  0  0  0  0  0
  -12.5470   -2.4970   -8.9870 C   0  0  1  0  0  0  0  0  0  0  0  0
  -11.4830   -2.8620   -7.9610 C   0  0  2  0  0  0  0  0  0  0  0  0
  -10.1770   -2.1400   -8.3020 C   0  0  1  0  0  0  0  0  0  0  0  0
  -10.3670   -0.6150   -8.2230 C   0  0  1  0  0  0  0  0  0  0  0  0
  -11.8340    1.2900   -8.8010 N   0  0  0  0  0  0  0  0  0  0  0  0
  -13.8010   -3.2930   -8.7820 N   0  0  0  0  0  0  0  0  0  0  0  0
   -9.1590   -2.5570   -7.4010 O   0  0  0  0  0  0  0  0  0  0  0  0
  -11.2680   -4.2850   -7.9420 O   0  0  0  0  0  0  0  0  0  0  0  0
   -9.1840    0.0500   -8.7130 O   0  0  0  0  0  0  0  0  0  0  0  0
  1  2  1  0  0  0  0
  1 10  1  0  0  0  0
  1 32  1  6  0  0  0
  2  3  1  0  0  0  0
  2  7  1  6  0  0  0
  3  4  1  0  0  0  0
  3  8  1  1  0  0  0
  4  5  1  0  0  0  0
  4  9  1  6  0  0  0
  5  6  1  1  0  0  0
  5 10  1  0  0  0  0
  6 11  1  0  0  0  0
 12 13  1  0  0  0  0
 12 21  1  0  0  0  0
 12 31  1  6  0  0  0
 13 14  1  0  0  0  0
 13 18  1  6  0  0  0
 14 15  1  0  0  0  0
 15 16  1  0  0  0  0
 15 20  1  6  0  0  0
 16 17  1  1  0  0  0
 16 21  1  0  0  0  0
 17 19  1  0  0  0  0
 22 23  1  0  0  0  0
 22 27  1  0  0  0  0
 22 28  1  1  0  0  0
 23 24  1  0  0  0  0
 24 25  1  0  0  0  0
 24 29  1  1  0  0  0
 25 26  1  0  0  0  0
 25 31  1  6  0  0  0
 26 27  1  0  0  0  0
 26 30  1  1  0  0  0
 27 32  1  6  0  0  0
M  END
>  <HEADER>
Generated with yapdb_parser, version: unknown (https://github.com/m4rx9/rna-pdb-tools) Wed Jan 27 17:52:45 2016

$$$$
