REMARK  6 active torsions:
REMARK  status: ('A' for Active; 'I' for Inactive)
REMARK    1  A    between atoms: C_1  and  O_32 
REMARK    2  A    between atoms: C_5  and  C_6 
REMARK    3  A    between atoms: C_12  and  O_31 
REMARK    4  A    between atoms: C_16  and  C_17 
REMARK    5  A    between atoms: C_25  and  O_31 
REMARK    6  A    between atoms: C_27  and  O_32 
ROOT
ATOM      1  C   UNL d   1     -11.557  -0.159  -9.082  0.00  0.00     0.334 C 
ATOM      2  C   UNL d   1     -12.825  -1.000  -8.882  0.00  0.00     0.083 C 
ATOM      3  C   UNL d   1     -12.547  -2.497  -8.987  0.00  0.00     0.334 C 
ATOM      4  C   UNL d   1     -11.483  -2.862  -7.961  0.00  0.00     0.188 C 
ATOM      5  C   UNL d   1     -10.177  -2.140  -8.302  0.00  0.00     0.210 C 
ATOM      6  C   UNL d   1     -10.367  -0.615  -8.223  0.00  0.00     0.188 C 
ATOM      7  N   UNL d   1     -11.834   1.290  -8.801  0.00  0.00     0.619 N 
ATOM      8  N   UNL d   1     -13.801  -3.293  -8.782  0.00  0.00     0.619 N 
ATOM      9  O   UNL d   1      -9.159  -2.557  -7.401  0.00  0.00    -0.218 OA
ENDROOT
BRANCH   6  10
ATOM     10  O   UNL d   1      -9.184   0.050  -8.713  0.00  0.00    -0.327 OA
BRANCH  10  11
ATOM     11  C   UNL d   1      -8.198   0.406  -7.782  0.00  0.00     0.269 C 
ATOM     12  C   UNL d   1      -7.615   1.758  -8.181  0.00  0.00     0.248 C 
ATOM     13  C   UNL d   1      -6.967   1.631  -9.560  0.00  0.00     0.369 C 
ATOM     14  O   UNL d   1      -8.646   2.741  -8.220  0.00  0.00    -0.216 OA
ATOM     15  C   UNL d   1      -5.929   0.501  -9.574  0.00  0.00     0.221 C 
ATOM     16  N   UNL d   1      -6.315   2.851 -10.133  0.00  0.00     0.622 N 
ATOM     17  C   UNL d   1      -6.555  -0.792  -9.040  0.00  0.00     0.183 C 
ATOM     18  O   UNL d   1      -5.477   0.305 -10.908  0.00  0.00    -0.218 OA
ATOM     19  O   UNL d   1      -7.156  -0.551  -7.752  0.00  0.00    -0.326 OA
BRANCH  17  20
ATOM     20  C   UNL d   1      -5.574  -1.941  -8.874  0.00  0.00     0.214 C 
ATOM     21  O   UNL d   1      -6.228  -3.095  -8.356  0.00  0.00    -0.218 OA
ENDBRANCH  17  20
ENDBRANCH  10  11
ENDBRANCH   6  10
BRANCH   4  22
ATOM     22  O   UNL d   1     -11.268  -4.285  -7.942  0.00  0.00    -0.327 OA
BRANCH  22  23
ATOM     23  C   UNL d   1     -10.721  -4.750  -6.739  0.00  0.00     0.274 C 
ATOM     24  C   UNL d   1      -9.521  -5.658  -7.028  0.00  0.00     0.360 C 
ATOM     25  C   UNL d   1      -9.977  -7.020  -7.552  0.00  0.00     0.080 C 
ATOM     26  N   UNL d   1      -8.637  -5.007  -8.047  0.00  0.00     0.621 N 
ATOM     27  C   UNL d   1     -10.990  -7.608  -6.583  0.00  0.00     0.184 C 
ATOM     28  C   UNL d   1     -12.161  -6.651  -6.443  0.00  0.00     0.187 C 
ATOM     29  O   UNL d   1     -11.447  -8.869  -7.051  0.00  0.00    -0.221 OA
ATOM     30  O   UNL d   1     -11.690  -5.397  -5.921  0.00  0.00    -0.327 OA
BRANCH  28  31
ATOM     31  C   UNL d   1     -13.213  -7.187  -5.489  0.00  0.00     0.370 C 
ATOM     32  N   UNL d   1     -13.666  -8.527  -6.001  0.00  0.00     0.621 N 
ENDBRANCH  28  31
ENDBRANCH  22  23
ENDBRANCH   4  22
TORSDOF 6
