@<TRIPOS>MOLECULE
ligands/ligand.pdb
 32 34 0 0 0
SMALL
GASTEIGER

@<TRIPOS>ATOM
      1 C          -8.1980    0.4060   -7.7820 C.3     1  UNL1        0.2684
      2 C          -7.6150    1.7580   -8.1810 C.3     1  UNL1        0.2279
      3 C          -6.9670    1.6310   -9.5600 C.3     1  UNL1        0.1599
      4 C          -5.9290    0.5010   -9.5740 C.3     1  UNL1        0.2017
      5 C          -6.5550   -0.7920   -9.0400 C.3     1  UNL1        0.1824
      6 C          -5.5740   -1.9410   -8.8740 C.3     1  UNL1        0.2142
      7 O          -8.6460    2.7410   -8.2200 O.3     1  UNL1       -0.2161
      8 N          -6.3150    2.8510  -10.1330 N.3     1  UNL1       -0.1272
      9 O          -5.4770    0.3050  -10.9080 O.3     1  UNL1       -0.2188
     10 O          -7.1560   -0.5510   -7.7520 O.3     1  UNL1       -0.3257
     11 O          -6.2280   -3.0950   -8.3560 O.3     1  UNL1       -0.2176
     12 C         -10.7210   -4.7500   -6.7390 C.3     1  UNL1        0.2534
     13 C          -9.5210   -5.6580   -7.0280 C.3     1  UNL1        0.1506
     14 C          -9.9770   -7.0200   -7.5520 C.3     1  UNL1        0.0597
     15 C         -10.9900   -7.6080   -6.5830 C.3     1  UNL1        0.1821
     16 C         -12.1610   -6.6510   -6.4430 C.3     1  UNL1        0.1670
     17 C         -13.2130   -7.1870   -5.4890 C.3     1  UNL1        0.1414
     18 N          -8.6370   -5.0070   -8.0470 N.3     1  UNL1       -0.1275
     19 N         -13.6660   -8.5270   -6.0010 N.3     1  UNL1       -0.1286
     20 O         -11.4470   -8.8690   -7.0510 O.3     1  UNL1       -0.2204
     21 O         -11.6900   -5.3970   -5.9210 O.3     1  UNL1       -0.3278
     22 C         -11.5570   -0.1590   -9.0820 C.3     1  UNL1        0.1231
     23 C         -12.8250   -1.0000   -8.8820 C.3     1  UNL1        0.0432
     24 C         -12.5470   -2.4970   -8.9870 C.3     1  UNL1        0.1231
     25 C         -11.4830   -2.8620   -7.9610 C.3     1  UNL1        0.1680
     26 C         -10.1770   -2.1400   -8.3020 C.3     1  UNL1        0.2088
     27 C         -10.3670   -0.6150   -8.2230 C.3     1  UNL1        0.1680
     28 N         -11.8340    1.2900   -8.8010 N.3     1  UNL1       -0.1302
     29 N         -13.8010   -3.2930   -8.7820 N.3     1  UNL1       -0.1302
     30 O          -9.1590   -2.5570   -7.4010 O.3     1  UNL1       -0.2178
     31 O         -11.2680   -4.2850   -7.9420 O.3     1  UNL1       -0.3277
     32 O          -9.1840    0.0500   -8.7130 O.3     1  UNL1       -0.3269
@<TRIPOS>BOND
     1     1     2    1
     2     1    10    1
     3     1    32    1
     4     2     3    1
     5     2     7    1
     6     3     4    1
     7     3     8    1
     8     4     5    1
     9     4     9    1
    10     5     6    1
    11     5    10    1
    12     6    11    1
    13    12    13    1
    14    12    21    1
    15    12    31    1
    16    13    14    1
    17    13    18    1
    18    14    15    1
    19    15    16    1
    20    15    20    1
    21    16    17    1
    22    16    21    1
    23    17    19    1
    24    22    23    1
    25    22    27    1
    26    22    28    1
    27    23    24    1
    28    24    25    1
    29    24    29    1
    30    25    26    1
    31    25    31    1
    32    26    27    1
    33    26    30    1
    34    27    32    1
