@<TRIPOS>MOLECULE
1NTA_SRY_A_26
 79 81 0 0 0
SMALL
GASTEIGER

@<TRIPOS>ATOM
      1 C          -1.6981   -3.4492   -4.9703 C.3     1  UNL1        0.1329
      2 H          -1.3992   -4.5063   -4.9469 H       1  UNL1        0.0746
      3 N          -1.8444   -3.1195   -6.3926 N.pl3   1  UNL1       -0.2682
      4 C          -2.8812   -2.7454   -7.1671 C.cat   1  UNL1        0.3766
      5 N          -4.1132   -2.5333   -6.9185 N.pl3   1  UNL1       -0.1298
      6 N          -2.4918   -2.5975   -8.4552 N.pl3   1  UNL1       -0.2893
      7 C          -2.9771   -3.2836   -4.1385 C.3     1  UNL1        0.1266
      8 H          -3.3619   -2.2626   -4.2499 H       1  UNL1        0.0665
      9 O          -3.9964   -4.1759   -4.6191 O.3     1  UNL1       -0.3847
     10 C          -2.7326   -3.5441   -2.6258 C.3     1  UNL1        0.1333
     11 H          -2.4164   -4.5860   -2.5182 H       1  UNL1        0.0746
     12 N          -3.9757   -3.3123   -1.8812 N.pl3   1  UNL1       -0.2682
     13 C          -4.8735   -4.2748   -1.5856 C.cat   1  UNL1        0.3766
     14 N          -4.6540   -5.5078   -1.3174 N.pl3   1  UNL1       -0.1298
     15 N          -6.1341   -3.8025   -1.5534 N.pl3   1  UNL1       -0.2893
     16 C          -1.6277   -2.5923   -2.0947 C.3     1  UNL1        0.1258
     17 H          -1.9759   -1.5643   -2.2663 H       1  UNL1        0.0659
     18 O          -1.4115   -2.6188   -0.6635 O.3     1  UNL1       -0.3392
     19 C          -0.8142   -3.7999   -0.1212 C.3     1  UNL1        0.1895
     20 H           0.1535   -3.9776   -0.5996 H       1  UNL1        0.0938
     21 C          -0.5929   -3.6859    1.4098 C.3     1  UNL1        0.1499
     22 H          -1.4639   -3.2512    1.9012 H       1  UNL1        0.0682
     23 C          -0.5509   -5.1748    1.7724 C.3     1  UNL1        0.1770
     24 O           0.7348   -5.7154    1.4703 O.3     1  UNL1       -0.3763
     25 C          -0.9165   -5.4668    3.2197 C.2     1  UNL1        0.1570
     26 O          -1.5725   -4.7233    3.9430 O.2     1  UNL1       -0.2978
     27 C          -1.6496   -5.7391    0.8538 C.3     1  UNL1        0.0969
     28 H          -2.6419   -5.6209    1.3109 H       1  UNL1        0.0628
     29 C          -1.4784   -7.1821    0.4089 C.3     1  UNL1       -0.0354
     30 O          -1.6466   -4.9355   -0.3429 O.3     1  UNL1       -0.3423
     31 O           0.6113   -2.9817    1.8298 O.3     1  UNL1       -0.3380
     32 C           0.7084   -1.6150    1.3695 C.3     1  UNL1        0.1780
     33 H           0.5233   -1.6249    0.2954 H       1  UNL1        0.0927
     34 C          -0.2959   -0.5949    2.0242 C.3     1  UNL1        0.0876
     35 H          -0.1642    0.3499    1.4769 H       1  UNL1        0.0537
     36 N          -1.7138   -0.9741    1.8591 N.3     1  UNL1       -0.3099
     37 C          -2.6890    0.0444    2.2062 C.3     1  UNL1       -0.0153
     38 C           0.1817   -0.3708    3.4740 C.3     1  UNL1        0.1035
     39 H           0.2427   -1.3086    4.0388 H       1  UNL1        0.0637
     40 O          -0.6579    0.5120    4.2305 O.3     1  UNL1       -0.3874
     41 C           1.5559    0.2934    3.4019 C.3     1  UNL1        0.1109
     42 H           1.4630    1.2482    2.8650 H       1  UNL1        0.0646
     43 O           2.0197    0.6197    4.7200 O.3     1  UNL1       -0.3865
     44 C           2.5513   -0.6257    2.6856 C.3     1  UNL1        0.1129
     45 H           2.8005   -1.4691    3.3416 H       1  UNL1        0.0647
     46 O           2.0634   -1.1237    1.4311 O.3     1  UNL1       -0.3415
     47 C           3.8540    0.1674    2.4109 C.3     1  UNL1        0.0730
     48 O           4.4790    0.6811    3.5837 O.3     1  UNL1       -0.3924
     49 C          -0.3294   -2.7742   -2.9011 C.3     1  UNL1        0.1138
     50 H           0.1089   -3.7619   -2.7237 H       1  UNL1        0.0647
     51 O           0.6742   -1.8300   -2.4875 O.3     1  UNL1       -0.3864
     52 C          -0.5448   -2.5922   -4.4095 C.3     1  UNL1        0.1193
     53 H          -0.7188   -1.5323   -4.6339 H       1  UNL1        0.0656
     54 O           0.6748   -2.9426   -5.0913 O.3     1  UNL1       -0.3856
     55 H          -0.9827   -3.3037   -6.9017 H       1  UNL1        0.2583
     56 H          -4.3600   -2.6910   -5.9356 H       1  UNL1        0.3062
     57 H          -1.6631   -2.0376   -8.5861 H       1  UNL1        0.2546
     58 H          -3.2682   -2.2254   -8.9927 H       1  UNL1        0.2546
     59 H          -3.7716   -4.4622   -5.5288 H       1  UNL1        0.2101
     60 H          -4.3959   -2.4014   -2.0095 H       1  UNL1        0.2583
     61 H          -3.6443   -5.6673   -1.3374 H       1  UNL1        0.3062
     62 H          -6.3979   -3.3407   -2.4143 H       1  UNL1        0.2546
     63 H          -6.7598   -4.5894   -1.4002 H       1  UNL1        0.2546
     64 H           1.3877   -5.0724    1.8108 H       1  UNL1        0.2109
     65 H          -0.6037   -6.4607    3.5866 H       1  UNL1        0.1059
     66 H          -1.4474   -7.8710    1.2560 H       1  UNL1        0.0256
     67 H          -0.5707   -7.3029   -0.1920 H       1  UNL1        0.0256
     68 H          -2.3103   -7.4716   -0.2450 H       1  UNL1        0.0256
     69 H          -1.8708   -1.2588    0.8854 H       1  UNL1        0.1221
     70 H          -2.2718    1.0542    2.2481 H       1  UNL1        0.0388
     71 H          -3.1534   -0.2023    3.1658 H       1  UNL1        0.0388
     72 H          -3.4911    0.0505    1.4615 H       1  UNL1        0.0388
     73 H          -1.4668   -0.0018    4.4126 H       1  UNL1        0.2100
     74 H           1.2087    0.8367    5.2276 H       1  UNL1        0.2100
     75 H           3.6484    1.0117    1.7408 H       1  UNL1        0.0584
     76 H           4.5834   -0.4631    1.8930 H       1  UNL1        0.0584
     77 H           3.7709    0.9685    4.1997 H       1  UNL1        0.2095
     78 H           0.2356   -1.0126   -2.1881 H       1  UNL1        0.2100
     79 H           1.4021   -2.5422   -4.5717 H       1  UNL1        0.2100
@<TRIPOS>BOND
     1     1     7    1
     2     1     3    1
     3     1     2    1
     4     3     4    1
     5     3    55    1
     6     4     5    2
     7     4     6    1
     8     5    56    1
     9     6    57    1
    10     6    58    1
    11     7     8    1
    12     7     9    1
    13     7    10    1
    14     9    59    1
    15    10    11    1
    16    10    12    1
    17    10    16    1
    18    12    13    1
    19    12    60    1
    20    13    14    2
    21    13    15    1
    22    14    61    1
    23    15    62    1
    24    15    63    1
    25    16    49    1
    26    16    18    1
    27    16    17    1
    28    18    19    1
    29    19    20    1
    30    19    21    1
    31    19    30    1
    32    21    23    1
    33    21    31    1
    34    21    22    1
    35    23    27    1
    36    23    25    1
    37    23    24    1
    38    24    64    1
    39    25    26    2
    40    25    65    1
    41    27    28    1
    42    27    29    1
    43    27    30    1
    44    29    66    1
    45    29    67    1
    46    29    68    1
    47    31    32    1
    48    32    33    1
    49    32    46    1
    50    34    32    1
    51    34    35    1
    52    34    36    1
    53    36    37    1
    54    36    69    1
    55    37    70    1
    56    37    71    1
    57    37    72    1
    58    38    34    1
    59    38    39    1
    60    38    40    1
    61    40    73    1
    62    41    38    1
    63    41    43    1
    64    41    42    1
    65    43    74    1
    66    44    41    1
    67    44    45    1
    68    44    46    1
    69    44    47    1
    70    47    48    1
    71    47    75    1
    72    47    76    1
    73    48    77    1
    74    49    50    1
    75    49    51    1
    76    49    52    1
    77    51    78    1
    78    52     1    1
    79    52    54    1
    80    52    53    1
    81    54    79    1
