1NTA_SRY_A_26
 OpenBabel03221816523D

 79 81  0  0  1  0  0  0  0  0999 V2000
   -1.6981   -3.4492   -4.9703 C   0  0  2  0  0  0  0  0  0  0  0  0
   -1.3992   -4.5063   -4.9469 H   0  0  0  0  0  0  0  0  0  0  0  0
   -1.8444   -3.1195   -6.3926 N   0  0  0  0  0  0  0  0  0  0  0  0
   -2.8812   -2.7454   -7.1671 C   0  0  0  0  0  0  0  0  0  0  0  0
   -4.1132   -2.5333   -6.9185 N   0  0  0  0  0  0  0  0  0  0  0  0
   -2.4918   -2.5975   -8.4552 N   0  0  0  0  0  0  0  0  0  0  0  0
   -2.9771   -3.2836   -4.1385 C   0  0  1  0  0  0  0  0  0  0  0  0
   -3.3619   -2.2626   -4.2499 H   0  0  0  0  0  0  0  0  0  0  0  0
   -3.9964   -4.1759   -4.6191 O   0  0  0  0  0  0  0  0  0  0  0  0
   -2.7326   -3.5441   -2.6258 C   0  0  2  0  0  0  0  0  0  0  0  0
   -2.4164   -4.5860   -2.5182 H   0  0  0  0  0  0  0  0  0  0  0  0
   -3.9757   -3.3123   -1.8812 N   0  0  0  0  0  0  0  0  0  0  0  0
   -4.8735   -4.2748   -1.5856 C   0  0  0  0  0  0  0  0  0  0  0  0
   -4.6540   -5.5078   -1.3174 N   0  0  0  0  0  0  0  0  0  0  0  0
   -6.1341   -3.8025   -1.5534 N   0  0  0  0  0  0  0  0  0  0  0  0
   -1.6277   -2.5923   -2.0947 C   0  0  1  0  0  0  0  0  0  0  0  0
   -1.9759   -1.5643   -2.2663 H   0  0  0  0  0  0  0  0  0  0  0  0
   -1.4115   -2.6188   -0.6635 O   0  0  0  0  0  0  0  0  0  0  0  0
   -0.8142   -3.7999   -0.1212 C   0  0  1  0  0  0  0  0  0  0  0  0
    0.1535   -3.9776   -0.5996 H   0  0  0  0  0  0  0  0  0  0  0  0
   -0.5929   -3.6859    1.4098 C   0  0  1  0  0  0  0  0  0  0  0  0
   -1.4639   -3.2512    1.9012 H   0  0  0  0  0  0  0  0  0  0  0  0
   -0.5509   -5.1748    1.7724 C   0  0  1  0  0  0  0  0  0  0  0  0
    0.7348   -5.7154    1.4703 O   0  0  0  0  0  0  0  0  0  0  0  0
   -0.9165   -5.4668    3.2197 C   0  0  0  0  0  0  0  0  0  0  0  0
   -1.5725   -4.7233    3.9430 O   0  0  0  0  0  0  0  0  0  0  0  0
   -1.6496   -5.7391    0.8538 C   0  0  2  0  0  0  0  0  0  0  0  0
   -2.6419   -5.6209    1.3109 H   0  0  0  0  0  0  0  0  0  0  0  0
   -1.4784   -7.1821    0.4089 C   0  0  0  0  0  0  0  0  0  0  0  0
   -1.6466   -4.9355   -0.3429 O   0  0  0  0  0  0  0  0  0  0  0  0
    0.6113   -2.9817    1.8298 O   0  0  0  0  0  0  0  0  0  0  0  0
    0.7084   -1.6150    1.3695 C   0  0  1  0  0  0  0  0  0  0  0  0
    0.5233   -1.6249    0.2954 H   0  0  0  0  0  0  0  0  0  0  0  0
   -0.2959   -0.5949    2.0242 C   0  0  1  0  0  0  0  0  0  0  0  0
   -0.1642    0.3499    1.4769 H   0  0  0  0  0  0  0  0  0  0  0  0
   -1.7138   -0.9741    1.8591 N   0  0  0  0  0  0  0  0  0  0  0  0
   -2.6890    0.0444    2.2062 C   0  0  0  0  0  0  0  0  0  0  0  0
    0.1817   -0.3708    3.4740 C   0  0  2  0  0  0  0  0  0  0  0  0
    0.2427   -1.3086    4.0388 H   0  0  0  0  0  0  0  0  0  0  0  0
   -0.6579    0.5120    4.2305 O   0  0  0  0  0  0  0  0  0  0  0  0
    1.5559    0.2934    3.4019 C   0  0  1  0  0  0  0  0  0  0  0  0
    1.4630    1.2482    2.8650 H   0  0  0  0  0  0  0  0  0  0  0  0
    2.0197    0.6197    4.7200 O   0  0  0  0  0  0  0  0  0  0  0  0
    2.5513   -0.6257    2.6856 C   0  0  1  0  0  0  0  0  0  0  0  0
    2.8005   -1.4691    3.3416 H   0  0  0  0  0  0  0  0  0  0  0  0
    2.0634   -1.1237    1.4311 O   0  0  0  0  0  0  0  0  0  0  0  0
    3.8540    0.1674    2.4109 C   0  0  0  0  0  0  0  0  0  0  0  0
    4.4790    0.6811    3.5837 O   0  0  0  0  0  0  0  0  0  0  0  0
   -0.3294   -2.7742   -2.9011 C   0  0  2  0  0  0  0  0  0  0  0  0
    0.1089   -3.7619   -2.7237 H   0  0  0  0  0  0  0  0  0  0  0  0
    0.6742   -1.8300   -2.4875 O   0  0  0  0  0  0  0  0  0  0  0  0
   -0.5448   -2.5922   -4.4095 C   0  0  1  0  0  0  0  0  0  0  0  0
   -0.7188   -1.5323   -4.6339 H   0  0  0  0  0  0  0  0  0  0  0  0
    0.6748   -2.9426   -5.0913 O   0  0  0  0  0  0  0  0  0  0  0  0
   -0.9827   -3.3037   -6.9017 H   0  0  0  0  0  0  0  0  0  0  0  0
   -4.3600   -2.6910   -5.9356 H   0  0  0  0  0  0  0  0  0  0  0  0
   -1.6631   -2.0376   -8.5861 H   0  0  0  0  0  0  0  0  0  0  0  0
   -3.2682   -2.2254   -8.9927 H   0  0  0  0  0  0  0  0  0  0  0  0
   -3.7716   -4.4622   -5.5288 H   0  0  0  0  0  0  0  0  0  0  0  0
   -4.3959   -2.4014   -2.0095 H   0  0  0  0  0  0  0  0  0  0  0  0
   -3.6443   -5.6673   -1.3374 H   0  0  0  0  0  0  0  0  0  0  0  0
   -6.3979   -3.3407   -2.4143 H   0  0  0  0  0  0  0  0  0  0  0  0
   -6.7598   -4.5894   -1.4002 H   0  0  0  0  0  0  0  0  0  0  0  0
    1.3877   -5.0724    1.8108 H   0  0  0  0  0  0  0  0  0  0  0  0
   -0.6037   -6.4607    3.5866 H   0  0  0  0  0  0  0  0  0  0  0  0
   -1.4474   -7.8710    1.2560 H   0  0  0  0  0  0  0  0  0  0  0  0
   -0.5707   -7.3029   -0.1920 H   0  0  0  0  0  0  0  0  0  0  0  0
   -2.3103   -7.4716   -0.2450 H   0  0  0  0  0  0  0  0  0  0  0  0
   -1.8708   -1.2588    0.8854 H   0  0  0  0  0  0  0  0  0  0  0  0
   -2.2718    1.0542    2.2481 H   0  0  0  0  0  0  0  0  0  0  0  0
   -3.1534   -0.2023    3.1658 H   0  0  0  0  0  0  0  0  0  0  0  0
   -3.4911    0.0505    1.4615 H   0  0  0  0  0  0  0  0  0  0  0  0
   -1.4668   -0.0018    4.4126 H   0  0  0  0  0  0  0  0  0  0  0  0
    1.2087    0.8367    5.2276 H   0  0  0  0  0  0  0  0  0  0  0  0
    3.6484    1.0117    1.7408 H   0  0  0  0  0  0  0  0  0  0  0  0
    4.5834   -0.4631    1.8930 H   0  0  0  0  0  0  0  0  0  0  0  0
    3.7709    0.9685    4.1997 H   0  0  0  0  0  0  0  0  0  0  0  0
    0.2356   -1.0126   -2.1881 H   0  0  0  0  0  0  0  0  0  0  0  0
    1.4021   -2.5422   -4.5717 H   0  0  0  0  0  0  0  0  0  0  0  0
  1  7  1  1  0  0  0
  1  3  1  0  0  0  0
  1  2  1  0  0  0  0
  3  4  1  0  0  0  0
  3 55  1  0  0  0  0
  4  5  2  0  0  0  0
  4  6  1  0  0  0  0
  5 56  1  0  0  0  0
  6 57  1  0  0  0  0
  6 58  1  0  0  0  0
  7  8  1  0  0  0  0
  7  9  1  0  0  0  0
  7 10  1  1  0  0  0
  9 59  1  0  0  0  0
 10 11  1  0  0  0  0
 10 12  1  0  0  0  0
 10 16  1  1  0  0  0
 12 13  1  0  0  0  0
 12 60  1  0  0  0  0
 13 14  2  0  0  0  0
 13 15  1  0  0  0  0
 14 61  1  0  0  0  0
 15 62  1  0  0  0  0
 15 63  1  0  0  0  0
 16 49  1  6  0  0  0
 16 18  1  0  0  0  0
 16 17  1  0  0  0  0
 18 19  1  0  0  0  0
 19 20  1  0  0  0  0
 19 21  1  1  0  0  0
 19 30  1  0  0  0  0
 21 23  1  1  0  0  0
 21 31  1  0  0  0  0
 21 22  1  0  0  0  0
 23 27  1  6  0  0  0
 23 25  1  0  0  0  0
 23 24  1  0  0  0  0
 24 64  1  0  0  0  0
 25 26  2  0  0  0  0
 25 65  1  0  0  0  0
 27 28  1  1  0  0  0
 27 29  1  0  0  0  0
 27 30  1  0  0  0  0
 29 66  1  0  0  0  0
 29 67  1  0  0  0  0
 29 68  1  0  0  0  0
 31 32  1  0  0  0  0
 32 33  1  6  0  0  0
 32 46  1  0  0  0  0
 34 32  1  6  0  0  0
 34 35  1  0  0  0  0
 34 36  1  0  0  0  0
 36 37  1  0  0  0  0
 36 69  1  0  0  0  0
 37 70  1  0  0  0  0
 37 71  1  0  0  0  0
 37 72  1  0  0  0  0
 38 34  1  6  0  0  0
 38 39  1  0  0  0  0
 38 40  1  0  0  0  0
 40 73  1  0  0  0  0
 41 38  1  1  0  0  0
 41 43  1  0  0  0  0
 41 42  1  0  0  0  0
 43 74  1  0  0  0  0
 44 41  1  1  0  0  0
 44 45  1  0  0  0  0
 44 46  1  0  0  0  0
 44 47  1  0  0  0  0
 47 48  1  0  0  0  0
 47 75  1  0  0  0  0
 47 76  1  0  0  0  0
 48 77  1  0  0  0  0
 49 50  1  0  0  0  0
 49 51  1  0  0  0  0
 49 52  1  6  0  0  0
 51 78  1  0  0  0  0
 52  1  1  6  0  0  0
 52 54  1  0  0  0  0
 52 53  1  0  0  0  0
 54 79  1  0  0  0  0
M  END
$$$$
