2ET5_RIO_A_54
 OpenBabel10091713573D
Coordinates from PDB:2ET5:A:54 Model:1 without hydrogens
 31 33  0  0  0  0  0  0  0  0999 V2000
   41.8860   24.1310    5.5370 O   0  0  0  0  0  0  0  0  0  0  0  0
   40.5090   23.7670    5.3610 C   0  0  0  0  0  0  0  0  0  0  0  0
   39.9150   24.9150    4.5490 C   0  0  1  0  0  0  0  0  0  0  0  0
   40.2690   24.9020    3.0730 O   0  0  0  0  0  0  0  0  0  0  0  0
   39.2240   24.5290    2.2600 C   0  0  1  0  0  0  0  0  0  0  0  0
   39.4650   23.5460    1.2920 O   0  0  0  0  0  0  0  0  0  0  0  0
   40.1280   23.8320   -0.0250 C   0  0  2  0  0  0  0  0  0  0  0  0
   39.0160   24.0420   -1.0950 C   0  0  1  0  0  0  0  0  0  0  0  0
   38.1560   25.1810   -0.7200 O   0  0  0  0  0  0  0  0  0  0  0  0
   39.6750   24.3380   -2.5340 C   0  0  2  0  0  0  0  0  0  0  0  0
   38.5770   24.5530   -3.6220 N   0  0  0  0  0  0  0  0  0  0  0  0
   40.5940   23.0950   -2.9090 C   0  0  0  0  0  0  0  0  0  0  0  0
   41.6820   22.9110   -1.7710 C   0  0  2  0  0  0  0  0  0  0  0  0
   42.5250   21.7290   -2.1500 N   0  0  0  0  0  0  0  0  0  0  0  0
   41.0480   22.6030   -0.4520 C   0  0  1  0  0  0  0  0  0  0  0  0
   42.0470   22.4560    0.4800 O   0  0  0  0  0  0  0  0  0  0  0  0
   41.9360   21.9470    1.8340 C   0  0  1  0  0  0  0  0  0  0  0  0
   42.0590   20.4500    1.7610 O   0  0  0  0  0  0  0  0  0  0  0  0
   43.4100   19.9200    1.3000 C   0  0  2  0  0  0  0  0  0  0  0  0
   43.3750   18.3970    1.2480 C   0  0  0  0  0  0  0  0  0  0  0  0
   42.3160   18.0640    0.2910 N   0  0  0  0  0  0  0  0  0  0  0  0
   44.4830   20.4330    2.2880 C   0  0  1  0  0  0  0  0  0  0  0  0
   45.7520   19.9860    1.8930 O   0  0  0  0  0  0  0  0  0  0  0  0
   44.4720   21.9510    2.3570 C   0  0  2  0  0  0  0  0  0  0  0  0
   45.4950   22.4420    3.3270 O   0  0  0  0  0  0  0  0  0  0  0  0
   43.0670   22.4120    2.7870 C   0  0  1  0  0  0  0  0  0  0  0  0
   42.9880   23.9230    2.8760 N   0  0  0  0  0  0  0  0  0  0  0  0
   38.0650   24.2240    3.1950 C   0  0  2  0  0  0  0  0  0  0  0  0
   36.8600   24.4960    2.5760 O   0  0  0  0  0  0  0  0  0  0  0  0
   38.3880   25.0380    4.4890 C   0  0  2  0  0  0  0  0  0  0  0  0
   37.9570   26.4090    4.2490 O   0  0  0  0  0  0  0  0  0  0  0  0
  1  2  1  0  0  0  0
  3  2  1  6  0  0  0
  3  4  1  0  0  0  0
  3 30  1  0  0  0  0
  4  5  1  0  0  0  0
  5  6  1  1  0  0  0
  5 28  1  0  0  0  0
  7  6  1  1  0  0  0
  7  8  1  0  0  0  0
  7 15  1  0  0  0  0
  8  9  1  1  0  0  0
  8 10  1  0  0  0  0
 10 11  1  6  0  0  0
 10 12  1  0  0  0  0
 12 13  1  0  0  0  0
 13 14  1  6  0  0  0
 13 15  1  0  0  0  0
 15 16  1  1  0  0  0
 17 16  1  6  0  0  0
 17 18  1  0  0  0  0
 17 26  1  0  0  0  0
 18 19  1  0  0  0  0
 19 20  1  1  0  0  0
 19 22  1  0  0  0  0
 20 21  1  0  0  0  0
 22 23  1  6  0  0  0
 22 24  1  0  0  0  0
 24 25  1  1  0  0  0
 24 26  1  0  0  0  0
 26 27  1  6  0  0  0
 28 29  1  6  0  0  0
 28 30  1  0  0  0  0
 30 31  1  6  0  0  0
A    1
O1
A    2
C1
A    3
C2
A    4
O2
A    5
C3
A    6
O3
A    7
C4
A    8
C5
A    9
O4
A   10
C6
A   11
N1
A   12
C7
A   13
C8
A   14
N2
A   15
C9
A   16
O5
A   17
C10
A   18
O6
A   19
C11
A   20
C12
A   21
N3
A   22
C13
A   23
O7
A   24
C14
A   25
O8
A   26
C15
A   27
N4
A   28
C16
A   29
O9
A   30
C17
A   31
O10
M  END
>  <InstanceId>
2ET5_RIO_A_54

>  <ChemCompId>
RIO

>  <PdbId>
2ET5

>  <ChainId>
A

>  <ResidueNumber>
54

>  <InsertionCode>


>  <Model>
1

>  <AltIds>


>  <MissingHeavyAtoms>
0

>  <ObservedFormula>
C17 N4 O10

>  <Name>
RIBOSTAMYCIN

>  <SystematicName>
(2R,3S,4R,5R,6R)-5-amino-2-(aminomethyl)-6-[(1R,2R,3S,4R,6S)-4,6-diamino-2-[(2S,3R,4S,5R)-3,4-dihydroxy-5-(hydroxymethyl)oxolan-2-yl]oxy-3-hydroxy-cyclohexyl]oxy-oxane-3,4-diol

>  <Synonyms>
5-AMINO-2-AMINOMETHYL-6-[4,6-DIAMINO-2-(3,4-DIHYDROXY-5-HYDROXYMETHYL-TETRAHYDRO-FURAN-2-YLOXY)-3-HYDROXY-CYCLOHEXYLOXY]-TETRAHYDRO-PYRAN-3,4-DIOL; (1R,2R,3S,4R,6S)-4,6-diamino-3-hydroxy-2-(beta-D-ribofuranosyloxy)cyclohexyl 2,6-diamino-2,6-dideoxy-alpha-D-glucopyranoside

>  <Type>
NON-POLYMER

>  <Formula>
C17 H34 N4 O10

>  <MolecularWeight>
454.473

>  <ModifiedDate>
2011-06-04

>  <Parent>


>  <OneLetterCode>


>  <SubcomponentList>


>  <AmbiguousFlag>
N

>  <InChI>
InChI=1S/C17H34N4O10/c18-2-6-10(24)12(26)8(21)16(28-6)30-14-5(20)1-4(19)9(23)15(14)31-17-13(27)11(25)7(3-22)29-17/h4-17,22-27H,1-3,18-21H2/t4-,5+,6-,7-,8-,9+,10-,11-,12-,13-,14-,15-,16-,17+/m1/s1

>  <InChIKey>
NSKGQURZWSPSBC-VVPCINPTSA-N

>  <SMILES>
C1[C@H]([C@@H]([C@H]([C@@H]([C@H]1N)O[C@@H]2[C@@H]([C@H]([C@@H]([C@H](O2)CN)O)O)N)O[C@H]3[C@@H]([C@@H]([C@H](O3)CO)O)O)O)N

$$$$
