2ET5_RIO_A_54
 OpenBabel10091713573D
Coordinates from PDB:2ET5:A:54 Model:1 without hydrogens
 65 67  0  0  1  0  0  0  0  0999 V2000
   41.8860   24.1310    5.5370 O   0  0  0  0  0  0  0  0  0  0  0  0
   40.5090   23.7670    5.3610 C   0  0  0  0  0  0  0  0  0  0  0  0
   39.9150   24.9150    4.5490 C   0  0  1  0  0  0  0  0  0  0  0  0
   40.2690   24.9020    3.0730 O   0  0  0  0  0  0  0  0  0  0  0  0
   39.2240   24.5290    2.2600 C   0  0  1  0  0  0  0  0  0  0  0  0
   39.4650   23.5460    1.2920 O   0  0  0  0  0  0  0  0  0  0  0  0
   40.1280   23.8320   -0.0250 C   0  0  2  0  0  0  0  0  0  0  0  0
   39.0160   24.0420   -1.0950 C   0  0  1  0  0  0  0  0  0  0  0  0
   38.1560   25.1810   -0.7200 O   0  0  0  0  0  0  0  0  0  0  0  0
   39.6750   24.3380   -2.5340 C   0  0  2  0  0  0  0  0  0  0  0  0
   38.5770   24.5530   -3.6220 N   0  0  0  0  0  0  0  0  0  0  0  0
   40.5940   23.0950   -2.9090 C   0  0  0  0  0  0  0  0  0  0  0  0
   41.6820   22.9110   -1.7710 C   0  0  2  0  0  0  0  0  0  0  0  0
   42.5250   21.7290   -2.1500 N   0  0  0  0  0  0  0  0  0  0  0  0
   41.0480   22.6030   -0.4520 C   0  0  1  0  0  0  0  0  0  0  0  0
   42.0470   22.4560    0.4800 O   0  0  0  0  0  0  0  0  0  0  0  0
   41.9360   21.9470    1.8340 C   0  0  1  0  0  0  0  0  0  0  0  0
   42.0590   20.4500    1.7610 O   0  0  0  0  0  0  0  0  0  0  0  0
   43.4100   19.9200    1.3000 C   0  0  2  0  0  0  0  0  0  0  0  0
   43.3750   18.3970    1.2480 C   0  0  0  0  0  0  0  0  0  0  0  0
   42.3160   18.0640    0.2910 N   0  0  0  0  0  0  0  0  0  0  0  0
   44.4830   20.4330    2.2880 C   0  0  1  0  0  0  0  0  0  0  0  0
   45.7520   19.9860    1.8930 O   0  0  0  0  0  0  0  0  0  0  0  0
   44.4720   21.9510    2.3570 C   0  0  2  0  0  0  0  0  0  0  0  0
   45.4950   22.4420    3.3270 O   0  0  0  0  0  0  0  0  0  0  0  0
   43.0670   22.4120    2.7870 C   0  0  1  0  0  0  0  0  0  0  0  0
   42.9880   23.9230    2.8760 N   0  0  0  0  0  0  0  0  0  0  0  0
   38.0650   24.2240    3.1950 C   0  0  2  0  0  0  0  0  0  0  0  0
   36.8600   24.4960    2.5760 O   0  0  0  0  0  0  0  0  0  0  0  0
   38.3880   25.0380    4.4890 C   0  0  2  0  0  0  0  0  0  0  0  0
   37.9570   26.4090    4.2490 O   0  0  0  0  0  0  0  0  0  0  0  0
   42.3391   23.4437    6.0501 H   0  0  0  0  0  0  0  0  0  0  0  0
   40.0169   23.6777    6.3069 H   0  0  0  0  0  0  0  0  0  0  0  0
   40.3957   22.8210    4.8740 H   0  0  0  0  0  0  0  0  0  0  0  0
   40.3532   25.7129    5.1114 H   0  0  0  0  0  0  0  0  0  0  0  0
   39.0063   25.3408    1.5979 H   0  0  0  0  0  0  0  0  0  0  0  0
   40.7393   24.7063    0.0576 H   0  0  0  0  0  0  0  0  0  0  0  0
   38.4283   23.1494   -1.1466 H   0  0  0  0  0  0  0  0  0  0  0  0
   38.6911   25.9887   -0.6739 H   0  0  0  0  0  0  0  0  0  0  0  0
   40.2556   25.2358   -2.4915 H   0  0  0  0  0  0  0  0  0  0  0  0
   37.9999   23.7149   -3.6929 H   0  0  0  0  0  0  0  0  0  0  0  0
   39.0212   24.7371   -4.5216 H   0  0  0  0  0  0  0  0  0  0  0  0
   41.0787   23.2744   -3.8459 H   0  0  0  0  0  0  0  0  0  0  0  0
   39.9976   22.2105   -2.9919 H   0  0  0  0  0  0  0  0  0  0  0  0
   42.2470   23.8151   -1.6798 H   0  0  0  0  0  0  0  0  0  0  0  0
   41.9353   20.8999   -2.2219 H   0  0  0  0  0  0  0  0  0  0  0  0
   43.2387   21.5778   -1.4371 H   0  0  0  0  0  0  0  0  0  0  0  0
   40.4603   21.7113   -0.5178 H   0  0  0  0  0  0  0  0  0  0  0  0
   41.0053   22.3083    2.2189 H   0  0  0  0  0  0  0  0  0  0  0  0
   43.6446   20.2664    0.3152 H   0  0  0  0  0  0  0  0  0  0  0  0
   43.1474   17.9947    2.2130 H   0  0  0  0  0  0  0  0  0  0  0  0
   44.3190   17.9872    0.9551 H   0  0  0  0  0  0  0  0  0  0  0  0
   41.4346   18.4709    0.6040 H   0  0  0  0  0  0  0  0  0  0  0  0
   42.2197   17.0504    0.2295 H   0  0  0  0  0  0  0  0  0  0  0  0
   44.2568   20.0463    3.2597 H   0  0  0  0  0  0  0  0  0  0  0  0
   45.9584   20.3359    1.0122 H   0  0  0  0  0  0  0  0  0  0  0  0
   44.7113   22.3544    1.3953 H   0  0  0  0  0  0  0  0  0  0  0  0
   45.2997   22.0891    4.2092 H   0  0  0  0  0  0  0  0  0  0  0  0
   42.9173   21.9566    3.7436 H   0  0  0  0  0  0  0  0  0  0  0  0
   43.1344   24.3262    1.9506 H   0  0  0  0  0  0  0  0  0  0  0  0
   43.7077   24.2641    3.5133 H   0  0  0  0  0  0  0  0  0  0  0  0
   37.9560   23.1928    3.4588 H   0  0  0  0  0  0  0  0  0  0  0  0
   36.8458   25.4225    2.2891 H   0  0  0  0  0  0  0  0  0  0  0  0
   37.9192   24.7152    5.3951 H   0  0  0  0  0  0  0  0  0  0  0  0
   38.3637   26.7374    3.4319 H   0  0  0  0  0  0  0  0  0  0  0  0
  1  2  1  0  0  0  0
  1 32  1  0  0  0  0
  2  3  1  0  0  0  0
  2 33  1  0  0  0  0
  2 34  1  0  0  0  0
  3  4  1  0  0  0  0
  3 30  1  0  0  0  0
  3 35  1  1  0  0  0
  4  5  1  0  0  0  0
  5  6  1  0  0  0  0
  5 28  1  0  0  0  0
  5 36  1  6  0  0  0
  6  7  1  0  0  0  0
  7  8  1  0  0  0  0
  7 15  1  0  0  0  0
  7 37  1  1  0  0  0
  8  9  1  0  0  0  0
  8 10  1  0  0  0  0
  8 38  1  6  0  0  0
  9 39  1  0  0  0  0
 10 11  1  0  0  0  0
 10 12  1  0  0  0  0
 10 40  1  1  0  0  0
 11 41  1  0  0  0  0
 11 42  1  0  0  0  0
 12 13  1  0  0  0  0
 12 43  1  0  0  0  0
 12 44  1  0  0  0  0
 13 14  1  0  0  0  0
 13 15  1  0  0  0  0
 13 45  1  1  0  0  0
 14 46  1  0  0  0  0
 14 47  1  0  0  0  0
 15 16  1  0  0  0  0
 15 48  1  6  0  0  0
 16 17  1  0  0  0  0
 17 18  1  0  0  0  0
 17 26  1  0  0  0  0
 17 49  1  1  0  0  0
 18 19  1  0  0  0  0
 19 20  1  0  0  0  0
 19 22  1  0  0  0  0
 19 50  1  6  0  0  0
 20 21  1  0  0  0  0
 20 51  1  0  0  0  0
 20 52  1  0  0  0  0
 21 53  1  0  0  0  0
 21 54  1  0  0  0  0
 22 23  1  0  0  0  0
 22 24  1  0  0  0  0
 22 55  1  1  0  0  0
 23 56  1  0  0  0  0
 24 25  1  0  0  0  0
 24 26  1  0  0  0  0
 24 57  1  6  0  0  0
 25 58  1  0  0  0  0
 26 27  1  0  0  0  0
 26 59  1  1  0  0  0
 27 60  1  0  0  0  0
 27 61  1  0  0  0  0
 28 29  1  0  0  0  0
 28 30  1  0  0  0  0
 28 62  1  1  0  0  0
 29 63  1  0  0  0  0
 30 31  1  0  0  0  0
 30 64  1  1  0  0  0
 31 65  1  0  0  0  0
M  END
$$$$
