@<TRIPOS>MOLECULE
2ET5_RIO_A_54
 31 33 0 0 0
SMALL
GASTEIGER
****
Coordinates from PDB:2ET5:A:54 Model:1 without hydrogens
@<TRIPOS>ATOM
      1 O          41.8860   24.1310    5.5370 O.3     1  UNL1       -0.2176
      2 C          40.5090   23.7670    5.3610 C.3     1  UNL1        0.2142
      3 C          39.9150   24.9150    4.5490 C.3     1  UNL1        0.1836
      4 O          40.2690   24.9020    3.0730 O.3     1  UNL1       -0.3256
      5 C          39.2240   24.5290    2.2600 C.3     1  UNL1        0.2695
      6 O          39.4650   23.5460    1.2920 O.3     1  UNL1       -0.3258
      7 C          40.1280   23.8320   -0.0250 C.3     1  UNL1        0.1779
      8 C          39.0160   24.0420   -1.0950 C.3     1  UNL1        0.1989
      9 O          38.1560   25.1810   -0.7200 O.3     1  UNL1       -0.2189
     10 C          39.6750   24.3380   -2.5340 C.3     1  UNL1        0.1261
     11 N          38.5770   24.5530   -3.6220 N.3     1  UNL1       -0.1301
     12 C          40.5940   23.0950   -2.9090 C.3     1  UNL1        0.0433
     13 C          41.6820   22.9110   -1.7710 C.3     1  UNL1        0.1230
     14 N          42.5250   21.7290   -2.1500 N.3     1  UNL1       -0.1302
     15 C          41.0480   22.6030   -0.4520 C.3     1  UNL1        0.1649
     16 O          42.0470   22.4560    0.4800 O.3     1  UNL1       -0.3278
     17 C          41.9360   21.9470    1.8340 C.3     1  UNL1        0.2561
     18 O          42.0590   20.4500    1.7610 O.3     1  UNL1       -0.3276
     19 C          43.4100   19.9200    1.3000 C.3     1  UNL1        0.1696
     20 C          43.3750   18.3970    1.2480 C.3     1  UNL1        0.1415
     21 N          42.3160   18.0640    0.2910 N.3     1  UNL1       -0.1286
     22 C          44.4830   20.4330    2.2880 C.3     1  UNL1        0.2122
     23 O          45.7520   19.9860    1.8930 O.3     1  UNL1       -0.2177
     24 C          44.4720   21.9510    2.3570 C.3     1  UNL1        0.2070
     25 O          45.4950   22.4420    3.3270 O.3     1  UNL1       -0.2186
     26 C          43.0670   22.4120    2.7870 C.3     1  UNL1        0.1807
     27 N          42.9880   23.9230    2.8760 N.3     1  UNL1       -0.1248
     28 C          38.0650   24.2240    3.1950 C.3     1  UNL1        0.2404
     29 O          36.8600   24.4960    2.5760 O.3     1  UNL1       -0.2149
     30 C          38.3880   25.0380    4.4890 C.3     1  UNL1        0.2168
     31 O          37.9570   26.4090    4.2490 O.3     1  UNL1       -0.2175
@<TRIPOS>BOND
     1     1     2    1
     2     3     2    1
     3     3     4    1
     4     3    30    1
     5     4     5    1
     6     5     6    1
     7     5    28    1
     8     7     6    1
     9     7     8    1
    10     7    15    1
    11     8     9    1
    12     8    10    1
    13    10    11    1
    14    10    12    1
    15    12    13    1
    16    13    14    1
    17    13    15    1
    18    15    16    1
    19    17    16    1
    20    17    18    1
    21    17    26    1
    22    18    19    1
    23    19    20    1
    24    19    22    1
    25    20    21    1
    26    22    23    1
    27    22    24    1
    28    24    25    1
    29    24    26    1
    30    26    27    1
    31    28    29    1
    32    28    30    1
    33    30    31    1
