REMARK  23 active torsions:
REMARK  status: ('A' for Active; 'I' for Inactive)
REMARK    1  A    between atoms: C_1  and  O_10 
REMARK    2  A    between atoms: C_2  and  N_9 
REMARK    3  A    between atoms: C_5  and  C_6 
REMARK    4  A    between atoms: C_6  and  N_7 
REMARK    5  A    between atoms: O_10  and  C_11 
REMARK    6  A    between atoms: C_12  and  O_28 
REMARK    7  A    between atoms: C_13  and  O_27 
REMARK    8  A    between atoms: C_14  and  N_18 
REMARK    9  A    between atoms: C_16  and  N_17 
REMARK       I    between atoms: N_18  and  C_19 
REMARK   10  A    between atoms: C_21  and  C_19 
REMARK   11  A    between atoms: C_21  and  C_22 
REMARK   12  A    between atoms: C_21  and  O_26 
REMARK   13  A    between atoms: C_22  and  C_23 
REMARK   14  A    between atoms: C_23  and  N_24 
REMARK   15  A    between atoms: O_28  and  C_29 
REMARK   16  A    between atoms: C_30  and  O_46 
REMARK   17  A    between atoms: C_31  and  O_36 
REMARK   18  A    between atoms: C_32  and  C_33 
REMARK   19  A    between atoms: C_33  and  O_34 
REMARK   20  A    between atoms: C_37  and  O_36 
REMARK   21  A    between atoms: C_38  and  N_45 
REMARK   22  A    between atoms: C_41  and  C_42 
REMARK   23  A    between atoms: C_42  and  N_43 
ROOT
ATOM      1  C   UNL d   1       4.822 -12.628   7.734  0.00  0.00     0.189 C 
ATOM      2  C   UNL d   1       5.626 -11.460   7.106  0.00  0.00     0.186 C 
ATOM      3  C   UNL d   1       7.142 -11.662   7.362  0.00  0.00     0.172 C 
ATOM      4  C   UNL d   1       7.661 -13.002   6.775  0.00  0.00     0.118 C 
ATOM      5  C   UNL d   1       6.827 -14.179   7.312  0.00  0.00     0.066 C 
ATOM      6  C   UNL d   1       5.302 -14.003   7.185  0.00  0.00     0.251 C 
ENDROOT
BRANCH   2   7
ATOM      7  O   UNL d   1       5.405 -11.369   5.689  0.00  0.00    -0.348 OA
BRANCH   7   8
ATOM      8  C   UNL d   1       4.190 -10.714   5.339  0.00  0.00     0.292 C 
ATOM      9  C   UNL d   1       4.157 -10.521   3.823  0.00  0.00     0.205 C 
ATOM     10  C   UNL d   1       2.668 -10.246   3.622  0.00  0.00     0.189 C 
ATOM     11  C   UNL d   1       2.072 -11.303   4.567  0.00  0.00     0.180 C 
ATOM     12  O   UNL d   1       3.041 -11.519   5.621  0.00  0.00    -0.348 OA
BRANCH   9  13
ATOM     13  O   UNL d   1       5.079  -9.583   3.320  0.00  0.00    -0.388 OA
ATOM     14  H   UNL d   1       4.864  -8.719   3.727  0.00  0.00     0.210 HD
ENDBRANCH   9  13
BRANCH  10  15
ATOM     15  O   UNL d   1       2.225  -8.943   4.018  0.00  0.00    -0.348 OA
BRANCH  15  16
ATOM     16  C   UNL d   1       2.593  -7.821   3.193  0.00  0.00     0.293 C 
ATOM     17  C   UNL d   1       2.256  -7.956   1.656  0.00  0.00     0.272 C 
ATOM     18  C   UNL d   1       2.834  -6.757   0.904  0.00  0.00     0.043 C 
ATOM     19  C   UNL d   1       4.316  -6.609   1.224  0.00  0.00     0.036 C 
ATOM     20  C   UNL d   1       4.474  -6.354   2.721  0.00  0.00     0.152 C 
ATOM     21  O   UNL d   1       3.951  -7.458   3.475  0.00  0.00    -0.352 OA
BRANCH  17  22
ATOM     22  N   UNL d   1       2.759  -9.164   0.969  0.00  0.00     0.087 N 
ATOM     23  H   UNL d   1       3.746  -9.304   1.200  0.00  0.00     0.313 HD
ATOM     24  H   UNL d   1       2.698  -9.059  -0.041  0.00  0.00     0.313 HD
ENDBRANCH  17  22
BRANCH  20  25
ATOM     25  C   UNL d   1       5.960  -6.181   3.109  0.00  0.00     0.298 C 
BRANCH  25  26
ATOM     26  N   UNL d   1       6.621  -5.078   2.409  0.00  0.00     0.080 N 
ATOM     27  H   UNL d   1       6.885  -5.387   1.473  0.00  0.00     0.312 HD
ATOM     28  H   UNL d   1       7.509  -4.879   2.881  0.00  0.00     0.312 HD
ENDBRANCH  25  26
ENDBRANCH  20  25
ENDBRANCH  15  16
ENDBRANCH  10  15
BRANCH  11  29
ATOM     29  C   UNL d   1       1.840 -12.630   3.819  0.00  0.00     0.198 C 
BRANCH  29  30
ATOM     30  O   UNL d   1       1.303 -13.614   4.695  0.00  0.00    -0.398 OA
ATOM     31  H   UNL d   1       1.932 -13.671   5.448  0.00  0.00     0.209 HD
ENDBRANCH  29  30
ENDBRANCH  11  29
ENDBRANCH   7   8
ENDBRANCH   2   7
BRANCH   1  32
ATOM     32  O   UNL d   1       4.903 -12.627   9.176  0.00  0.00    -0.349 OA
BRANCH  32  33
ATOM     33  C   UNL d   1       4.136 -11.562   9.780  0.00  0.00     0.293 C 
ATOM     34  C   UNL d   1       3.988 -11.802  11.317  0.00  0.00     0.272 C 
ATOM     35  C   UNL d   1       3.128 -10.678  11.920  0.00  0.00     0.043 C 
ATOM     36  C   UNL d   1       1.826 -10.466  11.145  0.00  0.00     0.036 C 
ATOM     37  C   UNL d   1       2.071 -10.316   9.641  0.00  0.00     0.152 C 
ATOM     38  O   UNL d   1       2.848 -11.425   9.175  0.00  0.00    -0.352 OA
BRANCH  34  39
ATOM     39  N   UNL d   1       3.403 -13.117  11.646  0.00  0.00     0.087 N 
ATOM     40  H   UNL d   1       2.547 -13.251  11.105  0.00  0.00     0.313 HD
ATOM     41  H   UNL d   1       3.156 -13.163  12.632  0.00  0.00     0.313 HD
ENDBRANCH  34  39
BRANCH  37  42
ATOM     42  C   UNL d   1       2.680  -8.962   9.195  0.00  0.00     0.298 C 
BRANCH  42  43
ATOM     43  N   UNL d   1       1.847  -7.789   9.446  0.00  0.00     0.080 N 
ATOM     44  H   UNL d   1       1.696  -7.659  10.444  0.00  0.00     0.312 HD
ATOM     45  H   UNL d   1       0.928  -7.915   9.023  0.00  0.00     0.312 HD
ENDBRANCH  42  43
ENDBRANCH  37  42
ENDBRANCH  32  33
ENDBRANCH   1  32
BRANCH   3  46
ATOM     46  O   UNL d   1       7.425 -11.591   8.772  0.00  0.00    -0.391 OA
ATOM     47  H   UNL d   1       6.811 -12.192   9.236  0.00  0.00     0.210 HD
ENDBRANCH   3  46
BRANCH   6  48
ATOM     48  N   UNL d   1       4.833 -14.232   5.807  0.00  0.00     0.085 N 
ATOM     49  H   UNL d   1       5.343 -14.997   5.364  0.00  0.00     0.313 HD
ATOM     50  H   UNL d   1       4.952 -13.385   5.249  0.00  0.00     0.313 HD
ENDBRANCH   6  48
BRANCH   4  51
ATOM     51  N   UNL d   1       7.699 -13.011   5.309  0.00  0.00    -0.352 N 
ATOM     52  C   UNL d   1       8.552 -12.218   4.564  0.00  0.00     0.249 C 
ATOM     53  O   UNL d   1       9.507 -11.628   5.070  0.00  0.00    -0.271 OA
ATOM     54  H   UNL d   1       6.871 -13.348   4.831  0.00  0.00     0.163 HD
BRANCH  52  55
ATOM     55  C   UNL d   1       8.162 -12.061   3.068  0.00  0.00     0.245 C 
BRANCH  55  56
ATOM     56  C   UNL d   1       7.692 -13.370   2.420  0.00  0.00     0.235 C 
ATOM     57  F   UNL d   1       6.583 -13.831   3.076  0.00  0.00    -0.244 F 
BRANCH  56  58
ATOM     58  C   UNL d   1       8.749 -14.485   2.400  0.00  0.00     0.306 C 
BRANCH  58  59
ATOM     59  N   UNL d   1       9.957 -14.146   1.635  0.00  0.00     0.081 N 
ATOM     60  H   UNL d   1       9.769 -14.270   0.641  0.00  0.00     0.312 HD
ATOM     61  H   UNL d   1      10.688 -14.823   1.857  0.00  0.00     0.312 HD
ENDBRANCH  58  59
ENDBRANCH  56  58
ENDBRANCH  55  56
BRANCH  55  62
ATOM     62  O   UNL d   1       9.180 -11.456   2.269  0.00  0.00    -0.383 OA
ATOM     63  H   UNL d   1       9.890 -12.127   2.184  0.00  0.00     0.210 HD
ENDBRANCH  55  62
ENDBRANCH  52  55
ENDBRANCH   4  51
TORSDOF 23
