@<TRIPOS>MOLECULE
3WRU_SJP_A_101
 98 101 0 0 0
SMALL
GASTEIGER

@<TRIPOS>ATOM
      1 C           4.1361  -11.5619    9.7803 C.3     1  UNL1        0.1750
      2 H           4.7143  -10.6446    9.6379 H       1  UNL1        0.0926
      3 C           3.9882  -11.8020   11.3167 C.3     1  UNL1        0.0566
      4 H           4.9848  -11.7860   11.7717 H       1  UNL1        0.0508
      5 C           3.1278  -10.6784   11.9196 C.3     1  UNL1       -0.0307
      6 C           1.8264  -10.4659   11.1447 C.3     1  UNL1       -0.0237
      7 C           2.0710  -10.3165    9.6413 C.3     1  UNL1        0.0740
      8 H           1.1000  -10.4084    9.1378 H       1  UNL1        0.0609
      9 C           2.6803   -8.9620    9.1953 C.3     1  UNL1        0.0196
     10 N           1.8473   -7.7888    9.4457 N.3     1  UNL1       -0.3277
     11 O           2.8475  -11.4253    9.1750 O.3     1  UNL1       -0.3453
     12 N           3.4027  -13.1169   11.6461 N.3     1  UNL1       -0.3232
     13 O           4.9029  -12.6274    9.1757 O.3     1  UNL1       -0.3423
     14 C           4.8217  -12.6277    7.7337 C.3     1  UNL1        0.1055
     15 H           3.7663  -12.5687    7.4694 H       1  UNL1        0.0639
     16 C           5.6257  -11.4603    7.1060 C.3     1  UNL1        0.1169
     17 H           5.3512  -10.5083    7.5766 H       1  UNL1        0.0650
     18 C           7.1419  -11.6620    7.3623 C.3     1  UNL1        0.1022
     19 H           7.6918  -10.8344    6.9008 H       1  UNL1        0.0639
     20 C           7.6609  -13.0016    6.7752 C.3     1  UNL1        0.0531
     21 H           8.6966  -13.1459    7.1127 H       1  UNL1        0.0525
     22 C           6.8275  -14.1792    7.3119 C.3     1  UNL1       -0.0143
     23 C           5.3021  -14.0029    7.1851 C.3     1  UNL1        0.0358
     24 H           4.8375  -14.7876    7.7965 H       1  UNL1        0.0485
     25 N           4.8334  -14.2320    5.8066 N.3     1  UNL1       -0.3250
     26 N           7.6993  -13.0112    5.3086 N.am    1  UNL1       -0.3076
     27 C           8.5521  -12.2181    4.5637 C.2     1  UNL1        0.2449
     28 O           9.5070  -11.6284    5.0696 O.2     1  UNL1       -0.2729
     29 C           8.1617  -12.0606    3.0679 C.3     1  UNL1        0.1627
     30 H           7.3176  -11.3597    3.0670 H       1  UNL1        0.0720
     31 C           7.6919  -13.3698    2.4196 C.3     1  UNL1        0.1473
     32 H           7.3833  -13.1650    1.3867 H       1  UNL1        0.0695
     33 C           8.7495  -14.4854    2.4001 C.3     1  UNL1        0.0274
     34 N           9.9570  -14.1458    1.6347 N.3     1  UNL1       -0.3273
     35 F           6.5834  -13.8310    3.0758 F       1  UNL1       -0.2410
     36 O           9.1799  -11.4560    2.2691 O.3     1  UNL1       -0.3796
     37 O           7.4247  -11.5908    8.7718 O.3     1  UNL1       -0.3873
     38 O           5.4051  -11.3686    5.6890 O.3     1  UNL1       -0.3402
     39 C           4.1901  -10.7144    5.3394 C.3     1  UNL1        0.1884
     40 H           4.1101   -9.7566    5.8683 H       1  UNL1        0.0938
     41 C           4.1567  -10.5207    3.8234 C.3     1  UNL1        0.1345
     42 H           4.4194  -11.4707    3.3391 H       1  UNL1        0.0671
     43 C           2.6682  -10.2457    3.6217 C.3     1  UNL1        0.1205
     44 H           2.2928  -10.4783    2.6286 H       1  UNL1        0.0651
     45 C           2.0718  -11.3028    4.5671 C.3     1  UNL1        0.1135
     46 H           1.1451  -10.9744    5.0484 H       1  UNL1        0.0647
     47 C           1.8401  -12.6296    3.8191 C.3     1  UNL1        0.0730
     48 O           1.3026  -13.6140    4.6949 O.3     1  UNL1       -0.3924
     49 O           3.0409  -11.5190    5.6208 O.3     1  UNL1       -0.3405
     50 O           2.2246   -8.9429    4.0184 O.3     1  UNL1       -0.3411
     51 C           2.5933   -7.8205    3.1933 C.3     1  UNL1        0.1750
     52 H           1.9820   -6.9921    3.5750 H       1  UNL1        0.0926
     53 C           2.2564   -7.9563    1.6560 C.3     1  UNL1        0.0566
     54 H           1.1649   -7.9747    1.5534 H       1  UNL1        0.0508
     55 C           2.8338   -6.7566    0.9040 C.3     1  UNL1       -0.0307
     56 C           4.3157   -6.6093    1.2236 C.3     1  UNL1       -0.0237
     57 C           4.4737   -6.3541    2.7209 C.3     1  UNL1        0.0740
     58 H           3.9265   -5.4467    3.0114 H       1  UNL1        0.0609
     59 C           5.9602   -6.1812    3.1093 C.3     1  UNL1        0.0196
     60 N           6.6212   -5.0777    2.4094 N.3     1  UNL1       -0.3277
     61 O           3.9511   -7.4578    3.4755 O.3     1  UNL1       -0.3453
     62 N           2.7588   -9.1642    0.9685 N.3     1  UNL1       -0.3232
     63 O           5.0794   -9.5831    3.3195 O.3     1  UNL1       -0.3841
     64 H           3.7041   -9.7450   11.9098 H       1  UNL1        0.0283
     65 H           2.8986  -10.8838   12.9718 H       1  UNL1        0.0283
     66 H           1.2756   -9.6095   11.5470 H       1  UNL1        0.0291
     67 H           1.1876  -11.3453   11.3009 H       1  UNL1        0.0291
     68 H           3.6494   -8.7914    9.6728 H       1  UNL1        0.0447
     69 H           2.8905   -9.0129    8.1200 H       1  UNL1        0.0447
     70 H           1.6955   -7.6592   10.4441 H       1  UNL1        0.1183
     71 H           0.9282   -7.9154    9.0229 H       1  UNL1        0.1183
     72 H           2.5472  -13.2507   11.1054 H       1  UNL1        0.1186
     73 H           3.1557  -13.1632   12.6319 H       1  UNL1        0.1186
     74 H           7.0594  -14.3103    8.3771 H       1  UNL1        0.0300
     75 H           7.1385  -15.1137    6.8258 H       1  UNL1        0.0300
     76 H           5.3431  -14.9971    5.3644 H       1  UNL1        0.1185
     77 H           4.9521  -13.3854    5.2491 H       1  UNL1        0.1185
     78 H           6.8711  -13.3482    4.8314 H       1  UNL1        0.1491
     79 H           8.3049  -15.3940    1.9799 H       1  UNL1        0.0451
     80 H           9.0346  -14.7397    3.4267 H       1  UNL1        0.0451
     81 H           9.7694  -14.2701    0.6414 H       1  UNL1        0.1183
     82 H          10.6877  -14.8226    1.8572 H       1  UNL1        0.1183
     83 H           9.8903  -12.1267    2.1841 H       1  UNL1        0.2106
     84 H           6.8112  -12.1922    9.2364 H       1  UNL1        0.2100
     85 H           1.1263  -12.4860    2.9990 H       1  UNL1        0.0584
     86 H           2.7646  -13.0323    3.3981 H       1  UNL1        0.0584
     87 H           1.9317  -13.6709    5.4477 H       1  UNL1        0.2095
     88 H           2.3011   -5.8448    1.1971 H       1  UNL1        0.0283
     89 H           2.6923   -6.8620   -0.1783 H       1  UNL1        0.0283
     90 H           4.7330   -5.7922    0.6278 H       1  UNL1        0.0291
     91 H           4.8618   -7.5184    0.9434 H       1  UNL1        0.0291
     92 H           6.5111   -7.1109    2.9248 H       1  UNL1        0.0447
     93 H           6.0223   -6.0091    4.1898 H       1  UNL1        0.0447
     94 H           6.8853   -5.3867    1.4730 H       1  UNL1        0.1183
     95 H           7.5089   -4.8788    2.8805 H       1  UNL1        0.1183
     96 H           3.7464   -9.3040    1.2001 H       1  UNL1        0.1186
     97 H           2.6982   -9.0593   -0.0410 H       1  UNL1        0.1186
     98 H           4.8640   -8.7188    3.7273 H       1  UNL1        0.2101
@<TRIPOS>BOND
     1     1     3    1
     2     1    11    1
     3     1    13    1
     4     1     2    1
     5     3     5    1
     6     3    12    1
     7     3     4    1
     8     5     6    1
     9     5    64    1
    10     5    65    1
    11     6     7    1
    12     6    66    1
    13     6    67    1
    14     7    11    1
    15     7     9    1
    16     7     8    1
    17     9    10    1
    18     9    68    1
    19     9    69    1
    20    10    70    1
    21    10    71    1
    22    12    72    1
    23    12    73    1
    24    13    14    1
    25    14    15    1
    26    14    16    1
    27    16    18    1
    28    16    38    1
    29    16    17    1
    30    18    20    1
    31    18    37    1
    32    18    19    1
    33    20    21    1
    34    20    22    1
    35    20    26    1
    36    22    23    1
    37    22    74    1
    38    22    75    1
    39    23    24    1
    40    23    14    1
    41    23    25    1
    42    25    76    1
    43    25    77    1
    44    26    27   am
    45    26    78    1
    46    27    28    2
    47    29    31    1
    48    29    36    1
    49    29    30    1
    50    29    27    1
    51    31    32    1
    52    31    33    1
    53    31    35    1
    54    33    34    1
    55    33    79    1
    56    33    80    1
    57    34    81    1
    58    34    82    1
    59    36    83    1
    60    37    84    1
    61    38    39    1
    62    39    40    1
    63    39    41    1
    64    39    49    1
    65    41    43    1
    66    41    63    1
    67    41    42    1
    68    43    44    1
    69    43    45    1
    70    43    50    1
    71    45    49    1
    72    45    47    1
    73    45    46    1
    74    47    48    1
    75    47    85    1
    76    47    86    1
    77    48    87    1
    78    51    53    1
    79    51    61    1
    80    51    52    1
    81    51    50    1
    82    53    55    1
    83    53    62    1
    84    53    54    1
    85    55    56    1
    86    55    88    1
    87    55    89    1
    88    56    57    1
    89    56    90    1
    90    56    91    1
    91    57    58    1
    92    57    59    1
    93    57    61    1
    94    59    60    1
    95    59    92    1
    96    59    93    1
    97    60    94    1
    98    60    95    1
    99    62    96    1
   100    62    97    1
   101    63    98    1
