@<TRIPOS>MOLECULE
ligands/ligand.pdb
 87 90 0 0 0
SMALL
GASTEIGER

@<TRIPOS>ATOM
      1 C           0.3092    2.8968   -0.2649 C.3     1  UNL1        0.1776
      2 H           1.3395    3.1718   -0.0308 H       1  UNL1        0.0927
      3 O          -0.3887    2.4968    0.9215 O.3     1  UNL1       -0.3422
      4 C           0.3873    2.2774    2.1203 C.3     1  UNL1        0.1055
      5 H          -0.3011    1.7343    2.7779 H       1  UNL1        0.0639
      6 C           1.6290    1.3545    1.9407 C.3     1  UNL1        0.1166
      7 H           2.2062    1.6490    1.0626 H       1  UNL1        0.0650
      8 C           2.5715    1.3871    3.1584 C.3     1  UNL1        0.0990
      9 H           2.1520    0.8008    3.9798 H       1  UNL1        0.0636
     10 C           2.8856    2.8154    3.5949 C.3     1  UNL1        0.0351
     11 H           3.3523    3.3614    2.7705 H       1  UNL1        0.0485
     12 N           3.8238    2.8142    4.7126 N.3     1  UNL1       -0.3250
     13 C           1.5947    3.5051    4.0091 C.3     1  UNL1       -0.0175
     14 C           0.6524    3.6454    2.8053 C.3     1  UNL1        0.0355
     15 H           1.1048    4.3390    2.0889 H       1  UNL1        0.0485
     16 N          -0.5923    4.2570    3.2828 N.3     1  UNL1       -0.3250
     17 O           3.7998    0.7498    2.7934 O.3     1  UNL1       -0.3876
     18 O           1.1606   -0.0009    1.7939 O.3     1  UNL1       -0.3402
     19 C           1.5812   -0.6902    0.6138 C.3     1  UNL1        0.1884
     20 H           1.7912    0.0085   -0.2027 H       1  UNL1        0.0938
     21 C           2.7832   -1.6147    0.8813 C.3     1  UNL1        0.1345
     22 H           3.3343   -1.3802    1.7938 H       1  UNL1        0.0671
     23 O           3.6747   -1.5305   -0.2282 O.3     1  UNL1       -0.3841
     24 C           2.1715   -3.0064    0.9520 C.3     1  UNL1        0.1205
     25 H           1.7483   -3.1933    1.9483 H       1  UNL1        0.0651
     26 O           2.9981   -4.0896    0.5606 O.3     1  UNL1       -0.3410
     27 C           4.2283   -4.3033    1.2679 C.3     1  UNL1        0.1776
     28 H           4.9883   -3.6799    0.7810 H       1  UNL1        0.0927
     29 O           4.1748   -3.9052    2.6452 O.3     1  UNL1       -0.3425
     30 C           4.8523   -4.7865    3.5478 C.3     1  UNL1        0.1022
     31 H           5.8852   -4.9011    3.1957 H       1  UNL1        0.0636
     32 C           4.1341   -6.1441    3.5428 C.3     1  UNL1        0.1100
     33 H           4.6928   -6.8738    4.1388 H       1  UNL1        0.0646
     34 C           3.8949   -6.6557    2.1155 C.3     1  UNL1        0.1033
     35 H           2.8220   -6.6841    1.8911 H       1  UNL1        0.0637
     36 C           4.6302   -5.7922    1.0777 C.3     1  UNL1        0.0853
     37 H           5.7117   -5.8981    1.2335 H       1  UNL1        0.0535
     38 N           4.3311   -6.2675   -0.2754 N.3     1  UNL1       -0.3211
     39 O           4.3450   -8.0085    2.0373 O.3     1  UNL1       -0.3874
     40 O           2.8517   -6.0184    4.1716 O.3     1  UNL1       -0.3866
     41 C           4.9111   -4.1119    4.9261 C.3     1  UNL1        0.0222
     42 N           5.7893   -4.8108    5.8600 N.3     1  UNL1       -0.3276
     43 C           1.0515   -2.8652   -0.0766 C.3     1  UNL1        0.1135
     44 H           1.4616   -2.8572   -1.0989 H       1  UNL1        0.0647
     45 O           0.5088   -1.5539    0.1643 O.3     1  UNL1       -0.3405
     46 C          -0.0592   -3.9161   -0.0440 C.3     1  UNL1        0.0730
     47 O           0.1827   -4.9452    0.9058 O.3     1  UNL1       -0.3924
     48 C          -0.3355    4.1177   -0.9722 C.3     1  UNL1        0.0853
     49 H           0.3185    4.3995   -1.8105 H       1  UNL1        0.0535
     50 N          -0.4308    5.2783   -0.0878 N.3     1  UNL1       -0.3211
     51 C          -1.7049    3.7887   -1.5742 C.3     1  UNL1        0.1033
     52 H          -2.4620    3.6603   -0.7872 H       1  UNL1        0.0637
     53 O          -2.1319    4.8529   -2.4268 O.3     1  UNL1       -0.3874
     54 C          -1.6131    2.5180   -2.4237 C.3     1  UNL1        0.1109
     55 H          -1.0493    2.7240   -3.3426 H       1  UNL1        0.0646
     56 O          -2.9339    2.1408   -2.8181 O.3     1  UNL1       -0.3865
     57 C          -0.9499    1.3858   -1.6310 C.3     1  UNL1        0.1129
     58 H          -1.5501    1.1623   -0.7424 H       1  UNL1        0.0647
     59 O           0.3567    1.8269   -1.2253 O.3     1  UNL1       -0.3415
     60 C          -0.8489    0.0826   -2.4361 C.3     1  UNL1        0.0730
     61 O           0.4692   -0.1394   -2.9110 O.3     1  UNL1       -0.3924
     62 H           4.6699    2.3193    4.4350 H       1  UNL1        0.1185
     63 H           4.1284    3.7716    4.8968 H       1  UNL1        0.1185
     64 H           1.8061    4.4956    4.4383 H       1  UNL1        0.0297
     65 H           1.0943    2.9304    4.8024 H       1  UNL1        0.0297
     66 H          -0.8711    3.8323    4.1678 H       1  UNL1        0.1185
     67 H          -1.3549    4.0610    2.6343 H       1  UNL1        0.1185
     68 H           4.1747    1.2379    2.0396 H       1  UNL1        0.2100
     69 H           4.1874   -0.7110   -0.1233 H       1  UNL1        0.2101
     70 H           4.6301   -7.2384   -0.3599 H       1  UNL1        0.1187
     71 H           4.8863   -5.7442   -0.9507 H       1  UNL1        0.1187
     72 H           5.3145   -8.0107    2.1061 H       1  UNL1        0.2100
     73 H           2.3849   -5.2800    3.7427 H       1  UNL1        0.2100
     74 H           3.9098   -4.0173    5.3592 H       1  UNL1        0.0448
     75 H           5.2994   -3.0931    4.8068 H       1  UNL1        0.0448
     76 H           5.3097   -4.9317    6.7516 H       1  UNL1        0.1183
     77 H           6.0001   -5.7516    5.5295 H       1  UNL1        0.1183
     78 H          -1.0300   -3.4608    0.1880 H       1  UNL1        0.0584
     79 H          -0.1581   -4.3894   -1.0286 H       1  UNL1        0.0584
     80 H           0.8808   -5.5169    0.5414 H       1  UNL1        0.2095
     81 H           0.4989    5.6356    0.1025 H       1  UNL1        0.1187
     82 H          -0.8122    4.9814    0.8071 H       1  UNL1        0.1187
     83 H          -2.4727    5.5691   -1.8629 H       1  UNL1        0.2100
     84 H          -3.4532    2.0097   -2.0058 H       1  UNL1        0.2100
     85 H          -1.5329    0.0745   -3.2942 H       1  UNL1        0.0584
     86 H          -1.1288   -0.7642   -1.8027 H       1  UNL1        0.0584
     87 H           0.3989   -0.5572   -3.7859 H       1  UNL1        0.2095
@<TRIPOS>BOND
     1     1     2    1
     2     3     1    1
     3     4     3    1
     4     4     5    1
     5     6     4    1
     6     6     7    1
     7     8     6    1
     8     8     9    1
     9    10     8    1
    10    10    11    1
    11    12    10    1
    12    13    10    1
    13    14    13    1
    14    14    15    1
    15    14     4    1
    16    16    14    1
    17    17     8    1
    18    18     6    1
    19    19    18    1
    20    19    20    1
    21    21    19    1
    22    21    22    1
    23    23    21    1
    24    24    21    1
    25    24    25    1
    26    26    24    1
    27    27    26    1
    28    27    28    1
    29    29    27    1
    30    30    29    1
    31    30    31    1
    32    32    30    1
    33    32    33    1
    34    34    32    1
    35    34    35    1
    36    36    34    1
    37    36    37    1
    38    36    27    1
    39    38    36    1
    40    39    34    1
    41    40    32    1
    42    41    30    1
    43    42    41    1
    44    43    24    1
    45    43    44    1
    46    45    43    1
    47    45    19    1
    48    46    43    1
    49    47    46    1
    50    48     1    1
    51    48    49    1
    52    50    48    1
    53    51    48    1
    54    51    52    1
    55    53    51    1
    56    54    51    1
    57    54    55    1
    58    56    54    1
    59    57    54    1
    60    57    58    1
    61    59    57    1
    62    59     1    1
    63    60    57    1
    64    61    60    1
    65    12    62    1
    66    12    63    1
    67    13    64    1
    68    13    65    1
    69    16    66    1
    70    16    67    1
    71    17    68    1
    72    23    69    1
    73    38    70    1
    74    38    71    1
    75    39    72    1
    76    40    73    1
    77    41    74    1
    78    41    75    1
    79    42    76    1
    80    42    77    1
    81    46    78    1
    82    46    79    1
    83    47    80    1
    84    50    81    1
    85    50    82    1
    86    53    83    1
    87    56    84    1
    88    60    85    1
    89    60    86    1
    90    61    87    1
