REMARK  22 active torsions:
REMARK  status: ('A' for Active; 'I' for Inactive)
REMARK    1  A    between atoms: O_2  and  C_1 
REMARK    2  A    between atoms: C_3  and  O_2 
REMARK    3  A    between atoms: O_12  and  C_4 
REMARK    4  A    between atoms: O_11  and  C_5 
REMARK    5  A    between atoms: N_7  and  C_6 
REMARK    6  A    between atoms: N_10  and  C_9 
REMARK    7  A    between atoms: C_13  and  O_12 
REMARK    8  A    between atoms: O_15  and  C_14 
REMARK    9  A    between atoms: O_17  and  C_16 
REMARK   10  A    between atoms: C_18  and  O_17 
REMARK   11  A    between atoms: C_27  and  C_20 
REMARK   12  A    between atoms: O_26  and  C_21 
REMARK   13  A    between atoms: O_25  and  C_22 
REMARK   14  A    between atoms: N_24  and  C_23 
REMARK   15  A    between atoms: N_28  and  C_27 
REMARK   16  A    between atoms: C_31  and  C_29 
REMARK   17  A    between atoms: O_32  and  C_31 
REMARK   18  A    between atoms: N_34  and  C_33 
REMARK   19  A    between atoms: O_36  and  C_35 
REMARK   20  A    between atoms: O_38  and  C_37 
REMARK   21  A    between atoms: C_41  and  C_39 
REMARK   22  A    between atoms: O_42  and  C_41 
ROOT
ATOM      1  C   UNL d   1       0.387   2.277   2.120  0.00  0.00     0.189 C 
ATOM      2  C   UNL d   1       1.629   1.355   1.941  0.00  0.00     0.186 C 
ATOM      3  C   UNL d   1       2.571   1.387   3.158  0.00  0.00     0.182 C 
ATOM      4  C   UNL d   1       2.886   2.815   3.595  0.00  0.00     0.251 C 
ATOM      5  C   UNL d   1       1.595   3.505   4.009  0.00  0.00     0.076 C 
ATOM      6  C   UNL d   1       0.652   3.645   2.805  0.00  0.00     0.251 C 
ENDROOT
BRANCH   2   7
ATOM      7  O   UNL d   1       1.161  -0.001   1.794  0.00  0.00    -0.348 OA
BRANCH   7   8
ATOM      8  C   UNL d   1       1.581  -0.690   0.614  0.00  0.00     0.292 C 
ATOM      9  C   UNL d   1       2.783  -1.615   0.881  0.00  0.00     0.205 C 
ATOM     10  C   UNL d   1       2.171  -3.006   0.952  0.00  0.00     0.189 C 
ATOM     11  C   UNL d   1       1.052  -2.865  -0.077  0.00  0.00     0.180 C 
ATOM     12  O   UNL d   1       0.509  -1.554   0.164  0.00  0.00    -0.348 OA
BRANCH   9  13
ATOM     13  O   UNL d   1       3.675  -1.530  -0.228  0.00  0.00    -0.388 OA
ATOM     14  H   UNL d   1       4.187  -0.711  -0.123  0.00  0.00     0.210 HD
ENDBRANCH   9  13
BRANCH  10  15
ATOM     15  O   UNL d   1       2.998  -4.090   0.561  0.00  0.00    -0.348 OA
BRANCH  15  16
ATOM     16  C   UNL d   1       4.228  -4.303   1.268  0.00  0.00     0.296 C 
ATOM     17  O   UNL d   1       4.175  -3.905   2.645  0.00  0.00    -0.349 OA
ATOM     18  C   UNL d   1       4.852  -4.787   3.548  0.00  0.00     0.183 C 
ATOM     19  C   UNL d   1       4.134  -6.144   3.543  0.00  0.00     0.179 C 
ATOM     20  C   UNL d   1       3.895  -6.656   2.115  0.00  0.00     0.187 C 
ATOM     21  C   UNL d   1       4.630  -5.792   1.078  0.00  0.00     0.303 C 
BRANCH  18  22
ATOM     22  C   UNL d   1       4.911  -4.112   4.926  0.00  0.00     0.301 C 
BRANCH  22  23
ATOM     23  N   UNL d   1       5.789  -4.811   5.860  0.00  0.00     0.080 N 
ATOM     24  H   UNL d   1       5.310  -4.932   6.752  0.00  0.00     0.312 HD
ATOM     25  H   UNL d   1       6.000  -5.752   5.529  0.00  0.00     0.312 HD
ENDBRANCH  22  23
ENDBRANCH  18  22
BRANCH  19  26
ATOM     26  O   UNL d   1       2.852  -6.018   4.172  0.00  0.00    -0.390 OA
ATOM     27  H   UNL d   1       2.385  -5.280   3.743  0.00  0.00     0.210 HD
ENDBRANCH  19  26
BRANCH  20  28
ATOM     28  O   UNL d   1       4.345  -8.008   2.037  0.00  0.00    -0.391 OA
ATOM     29  H   UNL d   1       5.314  -8.011   2.106  0.00  0.00     0.210 HD
ENDBRANCH  20  28
BRANCH  21  30
ATOM     30  N   UNL d   1       4.331  -6.268  -0.275  0.00  0.00     0.090 N 
ATOM     31  H   UNL d   1       4.630  -7.238  -0.360  0.00  0.00     0.313 HD
ATOM     32  H   UNL d   1       4.886  -5.744  -0.951  0.00  0.00     0.313 HD
ENDBRANCH  21  30
ENDBRANCH  15  16
ENDBRANCH  10  15
BRANCH  11  33
ATOM     33  C   UNL d   1      -0.059  -3.916  -0.044  0.00  0.00     0.198 C 
BRANCH  33  34
ATOM     34  O   UNL d   1       0.183  -4.945   0.906  0.00  0.00    -0.398 OA
ATOM     35  H   UNL d   1       0.881  -5.517   0.541  0.00  0.00     0.209 HD
ENDBRANCH  33  34
ENDBRANCH  11  33
ENDBRANCH   7   8
ENDBRANCH   2   7
BRANCH   1  36
ATOM     36  O   UNL d   1      -0.389   2.497   0.921  0.00  0.00    -0.349 OA
BRANCH  36  37
ATOM     37  C   UNL d   1       0.309   2.897  -0.265  0.00  0.00     0.296 C 
ATOM     38  C   UNL d   1      -0.336   4.118  -0.972  0.00  0.00     0.303 C 
ATOM     39  C   UNL d   1      -1.705   3.789  -1.574  0.00  0.00     0.187 C 
ATOM     40  C   UNL d   1      -1.613   2.518  -2.424  0.00  0.00     0.180 C 
ATOM     41  C   UNL d   1      -0.950   1.386  -1.631  0.00  0.00     0.179 C 
ATOM     42  O   UNL d   1       0.357   1.827  -1.225  0.00  0.00    -0.349 OA
BRANCH  38  43
ATOM     43  N   UNL d   1      -0.431   5.278  -0.088  0.00  0.00     0.090 N 
ATOM     44  H   UNL d   1       0.499   5.636   0.102  0.00  0.00     0.313 HD
ATOM     45  H   UNL d   1      -0.812   4.981   0.807  0.00  0.00     0.313 HD
ENDBRANCH  38  43
BRANCH  39  46
ATOM     46  O   UNL d   1      -2.132   4.853  -2.427  0.00  0.00    -0.391 OA
ATOM     47  H   UNL d   1      -2.473   5.569  -1.863  0.00  0.00     0.210 HD
ENDBRANCH  39  46
BRANCH  40  48
ATOM     48  O   UNL d   1      -2.934   2.141  -2.818  0.00  0.00    -0.390 OA
ATOM     49  H   UNL d   1      -3.453   2.010  -2.006  0.00  0.00     0.210 HD
ENDBRANCH  40  48
BRANCH  41  50
ATOM     50  C   UNL d   1      -0.849   0.083  -2.436  0.00  0.00     0.198 C 
BRANCH  50  51
ATOM     51  O   UNL d   1       0.469  -0.139  -2.911  0.00  0.00    -0.398 OA
ATOM     52  H   UNL d   1       0.399  -0.557  -3.786  0.00  0.00     0.209 HD
ENDBRANCH  50  51
ENDBRANCH  41  50
ENDBRANCH  36  37
ENDBRANCH   1  36
BRANCH   3  53
ATOM     53  O   UNL d   1       3.800   0.750   2.793  0.00  0.00    -0.391 OA
ATOM     54  H   UNL d   1       4.175   1.238   2.040  0.00  0.00     0.210 HD
ENDBRANCH   3  53
BRANCH   6  55
ATOM     55  N   UNL d   1      -0.592   4.257   3.283  0.00  0.00     0.085 N 
ATOM     56  H   UNL d   1      -0.871   3.832   4.168  0.00  0.00     0.313 HD
ATOM     57  H   UNL d   1      -1.355   4.061   2.634  0.00  0.00     0.313 HD
ENDBRANCH   6  55
BRANCH   4  58
ATOM     58  N   UNL d   1       3.824   2.814   4.713  0.00  0.00     0.085 N 
ATOM     59  H   UNL d   1       4.670   2.319   4.435  0.00  0.00     0.313 HD
ATOM     60  H   UNL d   1       4.128   3.772   4.897  0.00  0.00     0.313 HD
ENDBRANCH   4  58
TORSDOF 22
