1EI2_NMY_A_26
  1228              3D

 88 91  0  0  0  0  0  0  0  0999 V2000
   -0.1400    2.0336    1.8994 C   0  0  0  0  0  0  0  0  0  0  0  0
   -0.7727    2.4075    2.7173 H   0  0  0  0  0  0  0  0  0  0  0  0
    0.6037    3.1572    1.3994 O   0  0  0  0  0  0  0  0  0  0  0  0
    1.7529    3.5529    2.1358 C   0  0  0  0  0  0  0  0  0  0  0  0
    2.4278    2.6985    1.9742 H   0  0  0  0  0  0  0  0  0  0  0  0
    2.5348    4.7965    1.4674 C   0  0  0  0  0  0  0  0  0  0  0  0
    1.8042    5.4127    0.9148 H   0  0  0  0  0  0  0  0  0  0  0  0
    3.3598    5.7357    2.5088 C   0  0  0  0  0  0  0  0  0  0  0  0
    4.3067    6.0549    2.0702 H   0  0  0  0  0  0  0  0  0  0  0  0
    3.6914    5.2321    3.9656 C   0  0  0  0  0  0  0  0  0  0  0  0
    4.0225    6.0558    4.6004 H   0  0  0  0  0  0  0  0  0  0  0  0
    4.8076    4.2737    3.8883 N   0  0  0  0  0  0  0  0  0  0  0  0
    2.4263    4.5777    4.7438 C   0  0  0  0  0  0  0  0  0  0  0  0
    1.5390    3.8982    3.6441 C   0  0  0  0  0  0  0  0  0  0  0  0
    2.5858    3.7677    3.3716 H   0  0  0  0  0  0  0  0  0  0  0  0
    0.5279    4.9514    3.5105 N   0  0  0  0  0  0  0  0  0  0  0  0
    2.5987    6.9463    2.6631 O   0  0  0  0  0  0  0  0  0  0  0  0
    3.4213    4.2039    0.4931 O   0  0  0  0  0  0  0  0  0  0  0  0
    4.1950    5.1165   -0.2820 C   0  0  0  0  0  0  0  0  0  0  0  0
    3.9939    6.1696   -0.0374 H   0  0  0  0  0  0  0  0  0  0  0  0
    5.6660    4.7484   -0.1699 C   0  0  0  0  0  0  0  0  0  0  0  0
    5.7823    3.6639   -0.3038 H   0  0  0  0  0  0  0  0  0  0  0  0
    6.3180    5.5042   -1.3362 C   0  0  0  0  0  0  0  0  0  0  0  0
    7.1439    4.9054   -1.7351 H   0  0  0  0  0  0  0  0  0  0  0  0
    5.1190    5.6560   -2.3063 C   0  0  0  0  0  0  0  0  0  0  0  0
    4.8291    6.7055   -2.4026 H   0  0  0  0  0  0  0  0  0  0  0  0
    4.0017    4.9616   -1.6985 O   0  0  0  0  0  0  0  0  0  0  0  0
    5.3476    5.1287   -3.7224 C   0  0  0  0  0  0  0  0  0  0  0  0
    5.4886    3.7154   -3.7308 O   0  0  0  0  0  0  0  0  0  0  0  0
    6.8382    6.7509   -0.8311 O   0  0  0  0  0  0  0  0  0  0  0  0
    7.3135    7.7041   -1.7861 C   0  0  0  0  0  0  0  0  0  0  0  0
    7.6636    7.1397   -2.6458 H   0  0  0  0  0  0  0  0  0  0  0  0
    8.5409    8.4887   -1.2614 C   0  0  0  0  0  0  0  0  0  0  0  0
    9.4049    7.8095   -1.2807 H   0  0  0  0  0  0  0  0  0  0  0  0
    8.8788    9.7642   -2.0889 C   0  0  0  0  0  0  0  0  0  0  0  0
    9.3295   10.5229   -1.4419 H   0  0  0  0  0  0  0  0  0  0  0  0
    7.7322   10.4054   -2.8896 C   0  0  0  0  0  0  0  0  0  0  0  0
    8.1176   10.8700   -3.8061 H   0  0  0  0  0  0  0  0  0  0  0  0
    6.6992    9.3725   -3.3265 C   0  0  0  0  0  0  0  0  0  0  0  0
    7.1856    8.6804   -4.0332 H   0  0  0  0  0  0  0  0  0  0  0  0
    6.2913    8.6351   -2.1701 O   0  0  0  0  0  0  0  0  0  0  0  0
    5.4754   10.0033   -3.9912 C   0  0  0  0  0  0  0  0  0  0  0  0
    5.4546    9.6462   -5.4046 N   0  0  0  0  0  0  0  0  0  0  0  0
    7.1402   11.4484   -2.1202 O   0  0  0  0  0  0  0  0  0  0  0  0
    9.8952    9.4088   -3.0338 O   0  0  0  0  0  0  0  0  0  0  0  0
    8.3864    8.8495    0.1456 N   0  0  0  0  0  0  0  0  0  0  0  0
    6.2088    5.0993    1.0803 O   0  0  0  0  0  0  0  0  0  0  0  0
    0.6158    0.7622    2.3821 C   0  0  0  0  0  0  0  0  0  0  0  0
   -0.1719    0.0385    2.6172 H   0  0  0  0  0  0  0  0  0  0  0  0
    1.3431    0.8870    3.6389 N   0  0  0  0  0  0  0  0  0  0  0  0
    1.4582    0.1564    1.2604 C   0  0  0  0  0  0  0  0  0  0  0  0
    2.2543    0.8369    0.9357 H   0  0  0  0  0  0  0  0  0  0  0  0
    2.0769   -1.0494    1.7108 O   0  0  0  0  0  0  0  0  0  0  0  0
    0.5212   -0.1598    0.0980 C   0  0  0  0  0  0  0  0  0  0  0  0
   -0.1377   -0.9970    0.3754 H   0  0  0  0  0  0  0  0  0  0  0  0
    1.3165   -0.5675   -1.0176 O   0  0  0  0  0  0  0  0  0  0  0  0
   -0.3352    1.0609   -0.2980 C   0  0  0  0  0  0  0  0  0  0  0  0
    0.3211    1.8480   -0.6919 H   0  0  0  0  0  0  0  0  0  0  0  0
   -1.0424    1.5679    0.8561 O   0  0  0  0  0  0  0  0  0  0  0  0
   -1.3244    0.6789   -1.4208 C   0  0  0  0  0  0  0  0  0  0  0  0
   -2.7048    0.5295   -0.9830 N   0  0  0  0  0  0  0  0  0  0  0  0
    5.0378    4.0871    2.9151 H   0  0  0  0  0  0  0  0  0  0  0  0
    4.5076    3.3627    4.2407 H   0  0  0  0  0  0  0  0  0  0  0  0
    2.7478    3.8112    5.4695 H   0  0  0  0  0  0  0  0  0  0  0  0
    1.9241    5.3688    5.3355 H   0  0  0  0  0  0  0  0  0  0  0  0
    0.9514    5.8745    3.3738 H   0  0  0  0  0  0  0  0  0  0  0  0
    0.0006    5.0193    4.3779 H   0  0  0  0  0  0  0  0  0  0  0  0
    3.2411    7.6755    2.7264 H   0  0  0  0  0  0  0  0  0  0  0  0
    6.2379    5.5912   -4.1720 H   0  0  0  0  0  0  0  0  0  0  0  0
    4.4835    5.3836   -4.3506 H   0  0  0  0  0  0  0  0  0  0  0  0
    6.3579    3.5154   -4.1177 H   0  0  0  0  0  0  0  0  0  0  0  0
    5.4961   11.0979   -3.9441 H   0  0  0  0  0  0  0  0  0  0  0  0
    4.5292    9.6967   -3.5361 H   0  0  0  0  0  0  0  0  0  0  0  0
    6.3293    9.9523   -5.8367 H   0  0  0  0  0  0  0  0  0  0  0  0
    5.4438    8.6315   -5.4998 H   0  0  0  0  0  0  0  0  0  0  0  0
    7.4567   12.2729   -2.5315 H   0  0  0  0  0  0  0  0  0  0  0  0
    9.5525    8.6933   -3.5832 H   0  0  0  0  0  0  0  0  0  0  0  0
    8.1823    8.0100    0.6890 H   0  0  0  0  0  0  0  0  0  0  0  0
    9.2852    9.1926    0.4993 H   0  0  0  0  0  0  0  0  0  0  0  0
    6.9596    4.5140    1.2652 H   0  0  0  0  0  0  0  0  0  0  0  0
    2.2972    1.1855    3.4734 H   0  0  0  0  0  0  0  0  0  0  0  0
    1.4191   -0.0240    4.1024 H   0  0  0  0  0  0  0  0  0  0  0  0
    1.3868   -1.6117    2.1029 H   0  0  0  0  0  0  0  0  0  0  0  0
    1.6726   -1.4476   -0.8071 H   0  0  0  0  0  0  0  0  0  0  0  0
   -1.2761    1.4427   -2.1999 H   0  0  0  0  0  0  0  0  0  0  0  0
   -1.0279   -0.2586   -1.8982 H   0  0  0  0  0  0  0  0  0  0  0  0
   -3.2921    0.3570   -1.7983 H   0  0  0  0  0  0  0  0  0  0  0  0
   -3.0349    1.4082   -0.5852 H   0  0  0  0  0  0  0  0  0  0  0  0
  1  2  1  0  0  0  0
  3  1  1  0  0  0  0
  4  3  1  0  0  0  0
  4  5  1  0  0  0  0
  6  4  1  0  0  0  0
  6  7  1  0  0  0  0
  8  6  1  0  0  0  0
  8  9  1  0  0  0  0
 10  8  1  0  0  0  0
 10 11  1  0  0  0  0
 12 10  1  0  0  0  0
 13 10  1  0  0  0  0
 14 13  1  0  0  0  0
 14 15  1  0  0  0  0
 14  4  1  0  0  0  0
 16 14  1  0  0  0  0
 17  8  1  0  0  0  0
 18  6  1  0  0  0  0
 19 18  1  0  0  0  0
 19 20  1  0  0  0  0
 21 19  1  0  0  0  0
 21 22  1  0  0  0  0
 23 21  1  0  0  0  0
 23 24  1  0  0  0  0
 25 23  1  0  0  0  0
 25 26  1  0  0  0  0
 27 25  1  0  0  0  0
 27 19  1  0  0  0  0
 28 25  1  0  0  0  0
 29 28  1  0  0  0  0
 30 23  1  0  0  0  0
 31 30  1  0  0  0  0
 31 32  1  0  0  0  0
 33 31  1  0  0  0  0
 33 34  1  0  0  0  0
 35 33  1  0  0  0  0
 35 36  1  0  0  0  0
 37 35  1  0  0  0  0
 37 38  1  0  0  0  0
 39 37  1  0  0  0  0
 39 40  1  0  0  0  0
 41 39  1  0  0  0  0
 41 31  1  0  0  0  0
 42 39  1  0  0  0  0
 43 42  1  0  0  0  0
 44 37  1  0  0  0  0
 45 35  1  0  0  0  0
 46 33  1  0  0  0  0
 47 21  1  0  0  0  0
 48  1  1  0  0  0  0
 48 49  1  0  0  0  0
 50 48  1  0  0  0  0
 51 48  1  0  0  0  0
 51 52  1  0  0  0  0
 53 51  1  0  0  0  0
 54 51  1  0  0  0  0
 54 55  1  0  0  0  0
 56 54  1  0  0  0  0
 57 54  1  0  0  0  0
 57 58  1  0  0  0  0
 59 57  1  0  0  0  0
 59  1  1  0  0  0  0
 60 57  1  0  0  0  0
 61 60  1  0  0  0  0
 12 62  1  0  0  0  0
 12 63  1  0  0  0  0
 13 64  1  0  0  0  0
 13 65  1  0  0  0  0
 16 66  1  0  0  0  0
 16 67  1  0  0  0  0
 17 68  1  0  0  0  0
 28 69  1  0  0  0  0
 28 70  1  0  0  0  0
 29 71  1  0  0  0  0
 42 72  1  0  0  0  0
 42 73  1  0  0  0  0
 43 74  1  0  0  0  0
 43 75  1  0  0  0  0
 44 76  1  0  0  0  0
 45 77  1  0  0  0  0
 46 78  1  0  0  0  0
 46 79  1  0  0  0  0
 47 80  1  0  0  0  0
 50 81  1  0  0  0  0
 50 82  1  0  0  0  0
 53 83  1  0  0  0  0
 56 84  1  0  0  0  0
 60 85  1  0  0  0  0
 60 86  1  0  0  0  0
 61 87  1  0  0  0  0
 61 88  1  0  0  0  0
M  END
>  <energy>
276.27624377476621

$$$$
