1KOD_CIR_B_1
 OpenBabel10091713573D
Coordinates from PDB:1KOD:B:1 Model:1 without hydrogens
 12 11  0  0  0  0  0  0  0  0999 V2000
    1.7870    4.1030   36.2110 C   0  0  0  0  0  0  0  0  0  0  0  0
    1.1080    3.1150   36.4480 O   0  0  0  0  0  0  0  0  0  0  0  0
    2.9140    4.2780   36.6570 O   0  0  0  0  0  0  0  0  0  0  0  0
    1.1870    5.1880   35.2950 C   0  0  1  0  0  0  0  0  0  0  0  0
    1.4570    6.5360   35.8820 N   0  0  0  0  0  0  0  0  0  0  0  0
    1.8020    5.1100   33.8780 C   0  0  0  0  0  0  0  0  0  0  0  0
    2.3660    3.7200   33.6140 C   0  0  0  0  0  0  0  0  0  0  0  0
    1.2240    2.7320   33.3870 C   0  0  0  0  0  0  0  0  0  0  0  0
    1.7360    1.3410   33.5910 N   0  0  0  0  0  0  0  0  0  0  0  0
    0.9480    0.3120   33.4290 C   0  0  0  0  0  0  0  0  0  0  0  0
    0.8260   -0.5310   34.3150 O   0  0  0  0  0  0  0  0  0  0  0  0
    0.2950    0.1660   32.3130 N   0  0  0  0  0  0  0  0  0  0  0  0
  1  2  2  0  0  0  0
  1  3  1  0  0  0  0
  1  4  1  0  0  0  0
  4  5  1  1  0  0  0
  4  6  1  0  0  0  0
  6  7  1  0  0  0  0
  7  8  1  0  0  0  0
  8  9  1  0  0  0  0
  9 10  1  0  0  0  0
 10 11  2  0  0  0  0
 10 12  1  0  0  0  0
A    1
C1
A    2
O1
A    3
O2
A    4
C2
A    5
N2
A    6
C3
A    7
C4
A    8
C5
A    9
N6
A   10
C7
A   11
O7
A   12
N8
M  END
>  <InstanceId>
1KOD_CIR_B_1

>  <ChemCompId>
CIR

>  <PdbId>
1KOD

>  <ChainId>
B

>  <ResidueNumber>
1

>  <InsertionCode>


>  <Model>
1

>  <AltIds>


>  <MissingHeavyAtoms>
0

>  <ObservedFormula>
C6 N3 O3

>  <Name>
CITRULLINE

>  <SystematicName>
(2S)-5-(aminocarbonylamino)-2-azanyl-pentanoic acid

>  <Synonyms>


>  <Type>
L-PEPTIDE LINKING

>  <Formula>
C6 H13 N3 O3

>  <MolecularWeight>
175.186

>  <ModifiedDate>
2011-06-04

>  <Parent>
ARG

>  <OneLetterCode>
R

>  <SubcomponentList>


>  <AmbiguousFlag>
N

>  <InChI>
InChI=1S/C6H13N3O3/c7-4(5(10)11)2-1-3-9-6(8)12/h4H,1-3,7H2,(H,10,11)(H3,8,9,12)/t4-/m0/s1

>  <InChIKey>
RHGKLRLOHDJJDR-BYPYZUCNSA-N

>  <SMILES>
C(C[C@@H](C(=O)O)N)CNC(=O)N

$$$$
