@<TRIPOS>MOLECULE
1KOD_CIR_B_1
 12 11 0 0 0
SMALL
GASTEIGER
****
Coordinates from PDB:1KOD:B:1 Model:1 without hydrogens
@<TRIPOS>ATOM
      1 C           1.7870    4.1030   36.2110 C.2     1  UNL1        0.3819
      2 O           1.1080    3.1150   36.4480 O.co2   1  UNL1       -0.2441
      3 OXT         2.9140    4.2780   36.6570 O.co2   1  UNL1       -0.2441
      4 CA          1.1870    5.1880   35.2950 C.3     1  UNL1        0.1944
      5 N           1.4570    6.5360   35.8820 N.3     1  UNL1       -0.1208
      6 C           1.8020    5.1100   33.8780 C.3     1  UNL1        0.0324
      7 C           2.3660    3.7200   33.6140 C.3     1  UNL1        0.0256
      8 C           1.2240    2.7320   33.3870 C.3     1  UNL1        0.1169
      9 N           1.7360    1.3410   33.5910 N.am    1  UNL1       -0.1859
     10 C           0.9480    0.3120   33.4290 C.2     1  UNL1        0.3589
     11 O           0.8260   -0.5310   34.3150 O.2     1  UNL1       -0.2474
     12 N           0.2950    0.1660   32.3130 N.am    1  UNL1       -0.0679
@<TRIPOS>BOND
     1     1     2   ar
     2     1     3   ar
     3     1     4    1
     4     4     5    1
     5     4     6    1
     6     6     7    1
     7     7     8    1
     8     8     9    1
     9     9    10   am
    10    10    11    2
    11    10    12   am
