1KOD_CIR_B_1
 OpenBabel10091713573D
Coordinates from PDB:1KOD:B:1 Model:1 without hydrogens
 25 24  0  0  0  0  0  0  0  0999 V2000
    1.7870    4.1030   36.2110 C   0  0  0  0  0  0  0  0  0  0  0  0
    1.1080    3.1150   36.4480 O   0  0  0  0  0  0  0  0  0  0  0  0
    2.9140    4.2780   36.6570 O   0  0  0  0  0  0  0  0  0  0  0  0
    1.1870    5.1880   35.2950 C   0  0  1  0  0  0  0  0  0  0  0  0
    1.4570    6.5360   35.8820 N   0  0  0  0  0  0  0  0  0  0  0  0
    1.8020    5.1100   33.8780 C   0  0  0  0  0  0  0  0  0  0  0  0
    2.3660    3.7200   33.6140 C   0  0  0  0  0  0  0  0  0  0  0  0
    1.2240    2.7320   33.3870 C   0  0  0  0  0  0  0  0  0  0  0  0
    1.7360    1.3410   33.5910 N   0  0  0  0  0  0  0  0  0  0  0  0
    0.9480    0.3120   33.4290 C   0  0  0  0  0  0  0  0  0  0  0  0
    0.8260   -0.5310   34.3150 O   0  0  0  0  0  0  0  0  0  0  0  0
    0.2950    0.1660   32.3130 N   0  0  0  0  0  0  0  0  0  0  0  0
    3.3879    5.0568   36.4404 H   0  0  0  0  0  0  0  0  0  0  0  0
    0.1320    5.0272   35.2179 H   0  0  0  0  0  0  0  0  0  0  0  0
    2.4642    6.6809   35.9519 H   0  0  0  0  0  0  0  0  0  0  0  0
    1.0402    6.5919   36.8113 H   0  0  0  0  0  0  0  0  0  0  0  0
    2.5891    5.8302   33.7962 H   0  0  0  0  0  0  0  0  0  0  0  0
    1.0370    5.3142   33.1583 H   0  0  0  0  0  0  0  0  0  0  0  0
    2.9451    3.4058   34.4571 H   0  0  0  0  0  0  0  0  0  0  0  0
    2.9852    3.7501   32.7419 H   0  0  0  0  0  0  0  0  0  0  0  0
    0.8535    2.8351   32.3885 H   0  0  0  0  0  0  0  0  0  0  0  0
    0.4313    2.9305   34.0778 H   0  0  0  0  0  0  0  0  0  0  0  0
    2.6754    1.2000   33.8497 H   0  0  0  0  0  0  0  0  0  0  0  0
    0.3866    0.8363   31.5977 H   0  0  0  0  0  0  0  0  0  0  0  0
   -0.2907   -0.6147   32.1839 H   0  0  0  0  0  0  0  0  0  0  0  0
  1  2  2  0  0  0  0
  1  3  1  0  0  0  0
  1  4  1  0  0  0  0
  3 13  1  0  0  0  0
  4  5  1  0  0  0  0
  4  6  1  0  0  0  0
  4 14  1  6  0  0  0
  5 15  1  0  0  0  0
  5 16  1  0  0  0  0
  6  7  1  0  0  0  0
  6 17  1  0  0  0  0
  6 18  1  0  0  0  0
  7  8  1  0  0  0  0
  7 19  1  0  0  0  0
  7 20  1  0  0  0  0
  8  9  1  0  0  0  0
  8 21  1  0  0  0  0
  8 22  1  0  0  0  0
  9 10  1  0  0  0  0
  9 23  1  0  0  0  0
 10 11  2  0  0  0  0
 10 12  1  0  0  0  0
 12 24  1  0  0  0  0
 12 25  1  0  0  0  0
A    1
C1
A    2
O1
A    3
O2
A    4
C2
A    5
N2
A    6
C3
A    7
C4
A    8
C5
A    9
N6
A   10
C7
A   11
O7
A   12
N8
M  END
>  <InstanceId>
1KOD_CIR_B_1

>  <ChemCompId>
CIR

>  <PdbId>
1KOD

>  <ChainId>
B

>  <ResidueNumber>
1

>  <InsertionCode>


>  <Model>
1

>  <AltIds>


>  <MissingHeavyAtoms>
0

>  <ObservedFormula>
C6 N3 O3

>  <Name>
CITRULLINE

>  <SystematicName>
(2S)-5-(aminocarbonylamino)-2-azanyl-pentanoic acid

>  <Synonyms>


>  <Type>
L-PEPTIDE LINKING

>  <Formula>
C6 H13 N3 O3

>  <MolecularWeight>
175.186

>  <ModifiedDate>
2011-06-04

>  <Parent>
ARG

>  <OneLetterCode>
R

>  <SubcomponentList>


>  <AmbiguousFlag>
N

>  <InChI>
InChI=1S/C6H13N3O3/c7-4(5(10)11)2-1-3-9-6(8)12/h4H,1-3,7H2,(H,10,11)(H3,8,9,12)/t4-/m0/s1

>  <InChIKey>
RHGKLRLOHDJJDR-BYPYZUCNSA-N

>  <SMILES>
C(C[C@@H](C(=O)O)N)CNC(=O)N

$$$$
