REMARK  5 active torsions:
REMARK  status: ('A' for Active; 'I' for Inactive)
REMARK    1  A    between atoms: C_1  and  CA_4 
REMARK    2  A    between atoms: CA_4  and  C_6 
REMARK    3  A    between atoms: C_6  and  C_7 
REMARK    4  A    between atoms: C_7  and  C_8 
REMARK    5  A    between atoms: C_8  and  N_9 
REMARK       I    between atoms: N_9  and  C_10 
ROOT
ATOM      1  C   UNL d   1       1.802   5.110  33.878  0.00  0.00     0.053 C 
ENDROOT
BRANCH   1   2
ATOM      2  CA  UNL d   1       1.187   5.188  35.295  0.00  0.00     0.387 C 
ATOM      3  N   UNL d   1       1.457   6.536  35.882  0.00  0.00     0.628 N 
BRANCH   2   4
ATOM      4  C   UNL d   1       1.787   4.103  36.211  0.00  0.00     0.224 C 
ATOM      5  O   UNL d   1       1.108   3.115  36.448  0.00  0.00    -0.646 OA
ATOM      6  OXT UNL d   1       2.914   4.278  36.657  0.00  0.00    -0.646 OA
ENDBRANCH   2   4
ENDBRANCH   1   2
BRANCH   1   7
ATOM      7  C   UNL d   1       2.366   3.720  33.614  0.00  0.00     0.029 C 
BRANCH   7   8
ATOM      8  C   UNL d   1       1.224   2.732  33.387  0.00  0.00     0.131 C 
BRANCH   8   9
ATOM      9  N   UNL d   1       1.736   1.341  33.591  0.00  0.00    -0.216 NA
ATOM     10  C   UNL d   1       0.948   0.312  33.429  0.00  0.00     0.382 C 
ATOM     11  O   UNL d   1       0.826  -0.531  34.315  0.00  0.00    -0.241 OA
ATOM     12  N   UNL d   1       0.295   0.166  32.313  0.00  0.00    -0.084 N 
ENDBRANCH   8   9
ENDBRANCH   7   8
ENDBRANCH   1   7
TORSDOF 5
