@<TRIPOS>MOLECULE
3TD1_GET_B_50
 74 76 0 0 0
SMALL
GASTEIGER

@<TRIPOS>ATOM
      1 C          -3.6715   -1.2942    1.6060 C.3     1  UNL1        0.1776
      2 H          -4.1314   -1.7387    0.6978 H       1  UNL1        0.0927
      3 O          -3.0148   -0.1100    1.2957 O.3     1  UNL1       -0.3422
      4 C          -3.0327    0.4408   -0.0805 C.3     1  UNL1        0.1051
      5 H          -4.0365    0.1785    0.2066 H       1  UNL1        0.0639
      6 C          -3.7646    0.8239   -1.4887 C.3     1  UNL1        0.0355
      7 H          -3.9840   -0.1724   -2.0746 H       1  UNL1        0.0485
      8 C          -2.6515    1.3750   -2.5189 C.3     1  UNL1       -0.0175
      9 C          -1.0806    1.4242   -2.2917 C.3     1  UNL1        0.0355
     10 H          -0.7077    0.6413   -2.9843 H       1  UNL1        0.0485
     11 N          -0.2532    2.5856   -2.7389 N.3     1  UNL1       -0.3250
     12 C          -0.5048    1.0799   -0.9316 C.3     1  UNL1        0.1051
     13 H           0.2053    1.7793   -0.5638 H       1  UNL1        0.0639
     14 C          -1.6169    0.9432    0.1511 C.3     1  UNL1        0.1104
     15 H          -1.1294    0.0886    0.7851 H       1  UNL1        0.0646
     16 O          -1.5338    2.0800    1.0235 O.3     1  UNL1       -0.3865
     17 O           0.1077   -0.2166   -0.9343 O.3     1  UNL1       -0.3413
     18 C           1.4957   -0.5144   -1.0814 C.3     1  UNL1        0.1870
     19 H           1.6686   -0.5626   -2.1597 H       1  UNL1        0.0937
     20 C           1.6757   -1.8676   -0.4715 C.3     1  UNL1        0.1239
     21 H           2.1914   -2.3945   -1.2925 H       1  UNL1        0.0661
     22 O           0.6567   -2.7675   -0.3183 O.3     1  UNL1       -0.3851
     23 C           2.7362   -1.8573    0.6891 C.3     1  UNL1        0.0692
     24 H           3.4685   -1.0758    1.1249 H       1  UNL1        0.0517
     25 N           2.2189   -1.8085    2.0539 N.3     1  UNL1       -0.3115
     26 C           2.6347   -0.5545    2.8004 C.3     1  UNL1       -0.0154
     27 C           3.9874   -2.4092   -0.2128 C.3     1  UNL1        0.1043
     28 O           4.1115   -3.4260    0.7557 O.3     1  UNL1       -0.3849
     29 C           5.5000   -2.3064   -0.3966 C.3     1  UNL1       -0.0323
     30 C           3.8784   -0.7118   -0.8317 C.3     1  UNL1        0.0808
     31 O           2.6640    0.1908   -0.5489 O.3     1  UNL1       -0.3459
     32 N          -5.1220    1.1380   -1.2893 N.3     1  UNL1       -0.3250
     33 C          -4.7802   -1.0381    2.6813 C.3     1  UNL1        0.0853
     34 H          -5.5335   -0.5106    3.2014 H       1  UNL1        0.0535
     35 N          -5.1586    0.4897    2.1667 N.3     1  UNL1       -0.3211
     36 C          -4.8816   -1.8268    3.9743 C.3     1  UNL1        0.1033
     37 H          -5.5172   -2.7538    4.3389 H       1  UNL1        0.0637
     38 O          -6.4882   -1.8970    3.9822 O.3     1  UNL1       -0.3874
     39 C          -3.7561   -3.2690    3.7535 C.3     1  UNL1        0.1112
     40 H          -4.2390   -3.2328    4.6143 H       1  UNL1        0.0646
     41 O          -3.3138   -4.2307    4.8543 O.3     1  UNL1       -0.3865
     42 C          -2.4186   -2.6891    3.3487 C.3     1  UNL1        0.1155
     43 H          -2.1010   -1.7100    3.6867 H       1  UNL1        0.0650
     44 O          -2.6298   -2.3066    1.9601 O.3     1  UNL1       -0.3412
     45 C          -1.0222   -3.5413    3.8388 C.3     1  UNL1        0.0811
     46 H          -0.0944   -2.9930    3.6383 H       1  UNL1        0.0617
     47 O          -0.8114   -4.7949    3.1845 O.3     1  UNL1       -0.3894
     48 C          -0.9679   -3.7387    5.4027 C.3     1  UNL1       -0.0364
     49 H          -2.6608    0.5093   -3.2461 H       1  UNL1        0.0297
     50 H          -3.0918    2.1853   -3.0795 H       1  UNL1        0.0297
     51 H           0.6658    2.1412   -3.0576 H       1  UNL1        0.1185
     52 H          -0.5759    3.0426   -3.6046 H       1  UNL1        0.1185
     53 H          -2.3814    2.5285    1.0056 H       1  UNL1        0.2100
     54 H           0.8860   -3.5784   -0.8204 H       1  UNL1        0.2101
     55 H           1.2067   -1.7683    2.0642 H       1  UNL1        0.1221
     56 H           2.8911    0.2406    2.1128 H       1  UNL1        0.0388
     57 H           1.8609   -0.0976    3.4600 H       1  UNL1        0.0388
     58 H           3.5063   -0.7703    3.4285 H       1  UNL1        0.0388
     59 H           4.7090   -3.1345    1.4885 H       1  UNL1        0.2103
     60 H           5.9690   -3.3003   -0.4014 H       1  UNL1        0.0258
     61 H           5.9953   -1.7084    0.3196 H       1  UNL1        0.0258
     62 H           5.7618   -1.9472   -1.4262 H       1  UNL1        0.0258
     63 H           4.7526   -0.0383   -0.5282 H       1  UNL1        0.0590
     64 H           3.8721   -0.7918   -1.9616 H       1  UNL1        0.0590
     65 H          -5.4441    1.3664   -0.3246 H       1  UNL1        0.1185
     66 H          -5.6224    1.6641   -1.9781 H       1  UNL1        0.1185
     67 H          -6.0762    0.4816    1.7286 H       1  UNL1        0.1187
     68 H          -5.2283    1.1003    2.9702 H       1  UNL1        0.1187
     69 H          -6.8527   -0.9994    4.0210 H       1  UNL1        0.2100
     70 H          -3.9618   -4.1551    5.7476 H       1  UNL1        0.2100
     71 H           0.0688   -4.7821    2.7641 H       1  UNL1        0.2099
     72 H          -1.8208   -3.2800    5.9258 H       1  UNL1        0.0255
     73 H          -0.1582   -3.1533    5.8266 H       1  UNL1        0.0255
     74 H          -0.8694   -4.7562    5.8005 H       1  UNL1        0.0255
@<TRIPOS>BOND
     1     1     2    1
     2     3     1    1
     3     4     3    1
     4     4     5    1
     5     6     4    1
     6     6     7    1
     7     8     6    1
     8     9     8    1
     9     9    10    1
    10    11     9    1
    11    12     9    1
    12    12    13    1
    13    14    12    1
    14    14    15    1
    15    14     4    1
    16    16    14    1
    17    17    12    1
    18    18    17    1
    19    18    19    1
    20    20    18    1
    21    20    21    1
    22    22    20    1
    23    23    20    1
    24    23    24    1
    25    25    23    1
    26    26    25    1
    27    27    23    1
    28    28    27    1
    29    29    27    1
    30    30    27    1
    31    31    30    1
    32    31    18    1
    33    32     6    1
    34    33     1    1
    35    33    34    1
    36    35    33    1
    37    36    33    1
    38    36    37    1
    39    38    36    1
    40    39    36    1
    41    39    40    1
    42    41    39    1
    43    42    39    1
    44    42    43    1
    45    44    42    1
    46    44     1    1
    47    45    42    1
    48    45    46    1
    49    47    45    1
    50    48    45    1
    51     8    49    1
    52     8    50    1
    53    11    51    1
    54    11    52    1
    55    16    53    1
    56    22    54    1
    57    25    55    1
    58    26    56    1
    59    26    57    1
    60    26    58    1
    61    28    59    1
    62    29    60    1
    63    29    61    1
    64    29    62    1
    65    30    63    1
    66    30    64    1
    67    32    65    1
    68    32    66    1
    69    35    67    1
    70    35    68    1
    71    38    69    1
    72    41    70    1
    73    47    71    1
    74    48    72    1
    75    48    73    1
    76    48    74    1
