@<TRIPOS>MOLECULE
ligand.pdb
 27 29 0 0 0
SMALL
GASTEIGER

@<TRIPOS>ATOM
      1 N          13.4420   -4.5190   10.7230 N.3     1  UNL1       -0.1208
      2 CA         14.0540   -5.5030   11.6180 C.3     1  UNL1        0.1952
      3 C          15.3780   -5.0830   12.2610 C.2     1  UNL1        0.3819
      4 O          15.7870   -5.7090   13.2380 O.co2   1  UNL1       -0.2441
      5 OXT        16.0550   -4.1380   11.8470 O.co2   1  UNL1       -0.2441
      6 C          14.1990   -6.8490   10.9280 C.3     1  UNL1        0.0414
      7 C          12.8510   -7.4100   10.5090 C.3     1  UNL1        0.0503
      8 S          13.0350   -9.0680    9.8290 S.3     1  UNL1       -0.1761
      9 C          13.9650   -9.8520   11.1630 C.3     1  UNL1        0.0590
     10 C          14.3760   -8.7930    8.6480 C.3     1  UNL1        0.0805
     11 C          13.8360   -8.2820    7.3250 C.3     1  UNL1        0.1602
     12 O          13.2210   -7.0250    7.4920 O.3     1  UNL1       -0.3324
     13 C          14.9250   -8.0550    6.2950 C.3     1  UNL1        0.2144
     14 O          15.0530   -9.2210    5.5210 O.3     1  UNL1       -0.2176
     15 C          14.3930   -6.9050    5.4640 C.3     1  UNL1        0.2336
     16 O          13.8430   -7.4550    4.2880 O.3     1  UNL1       -0.2155
     17 C          13.3050   -6.2440    6.3130 C.3     1  UNL1        0.2409
     18 N          13.7390   -4.8970    6.7340 N.ar    1  UNL1       -0.2693
     19 C          12.9750   -3.7560    6.7300 C.ar    1  UNL1        0.1816
     20 N          13.7130   -2.7300    7.2130 N.ar    1  UNL1       -0.2193
     21 C          14.9470   -3.2040    7.5240 C.ar    1  UNL1        0.1518
     22 C          16.0890   -2.6010    8.0470 C.ar    1  UNL1        0.1919
     23 N          16.1080   -1.3000    8.3380 N.pl3   1  UNL1       -0.1054
     24 N          17.2200   -3.3610    8.2570 N.ar    1  UNL1       -0.2040
     25 C          17.2280   -4.7020    7.9590 C.ar    1  UNL1        0.2016
     26 N          16.0880   -5.2860    7.4520 N.ar    1  UNL1       -0.2048
     27 C          14.9660   -4.5620    7.2410 C.ar    1  UNL1        0.1692
@<TRIPOS>BOND
     1     2     3    1
     2     2     6    1
     3     2     1    1
     4     3     4   ar
     5     3     5   ar
     6     6     7    1
     7     7     8    1
     8     8     9    1
     9     8    10    1
    10    11    12    1
    11    11    13    1
    12    11    10    1
    13    12    17    1
    14    13    14    1
    15    13    15    1
    16    15    16    1
    17    15    17    1
    18    17    18    1
    19    18    27   ar
    20    18    19   ar
    21    19    20   ar
    22    20    21   ar
    23    21    22   ar
    24    21    27   ar
    25    22    23    1
    26    22    24   ar
    27    24    25   ar
    28    25    26   ar
    29    26    27   ar
