@<TRIPOS>MOLECULE
2GUN_SPM_B_521
 40 39 0 0 0
SMALL
GASTEIGER

@<TRIPOS>ATOM
      1 N           0.8712    0.0776    0.0325 N.3     1  UNL1       -0.3299
      2 C           2.3300    0.0748    0.0408 C.3     1  UNL1       -0.0058
      3 C           2.8738   -0.8409   -1.0547 C.3     1  UNL1       -0.0281
      4 C           4.4039   -0.8342   -1.0499 C.3     1  UNL1       -0.0030
      5 N           4.9148   -1.7270   -2.0915 N.3     1  UNL1       -0.3159
      6 C           6.3777   -1.7282   -2.1066 C.3     1  UNL1       -0.0041
      7 C           6.8807   -2.6583   -3.2108 C.3     1  UNL1       -0.0393
      8 C           8.4103   -2.6952   -3.2424 C.3     1  UNL1       -0.0393
      9 C           8.9134   -3.6239   -4.3474 C.3     1  UNL1       -0.0041
     10 N          10.3762   -3.6258   -4.3621 N.3     1  UNL1       -0.3159
     11 C          10.8867   -4.5165   -5.4055 C.3     1  UNL1       -0.0030
     12 C          12.4166   -4.5135   -5.3978 C.3     1  UNL1       -0.0281
     13 C          12.9604   -5.4277   -6.4949 C.3     1  UNL1       -0.0058
     14 N          14.4187   -5.4342   -6.4840 N.3     1  UNL1       -0.3299
     15 H           0.5289    0.6403    0.8104 H       1  UNL1        0.1182
     16 H           0.5265   -0.8689    0.1921 H       1  UNL1        0.1182
     17 H           2.6854   -0.2571    1.0226 H       1  UNL1        0.0422
     18 H           2.6871    1.0989   -0.1135 H       1  UNL1        0.0422
     19 H           2.5033   -0.5090   -2.0332 H       1  UNL1        0.0290
     20 H           2.5077   -1.8643   -0.8998 H       1  UNL1        0.0290
     21 H           4.7638   -1.1659   -0.0688 H       1  UNL1        0.0424
     22 H           4.7654    0.1875   -1.2171 H       1  UNL1        0.0424
     23 H           4.5622   -1.4260   -3.0006 H       1  UNL1        0.1219
     24 H           6.7600   -2.0742   -1.1391 H       1  UNL1        0.0424
     25 H           6.7574   -0.7143   -2.2804 H       1  UNL1        0.0424
     26 H           6.5032   -2.3200   -4.1841 H       1  UNL1        0.0278
     27 H           6.4936   -3.6726   -3.0479 H       1  UNL1        0.0278
     28 H           8.7875   -3.0345   -2.2694 H       1  UNL1        0.0278
     29 H           8.7974   -1.6809   -3.4041 H       1  UNL1        0.0278
     30 H           8.5312   -3.2769   -5.3148 H       1  UNL1        0.0424
     31 H           8.5333   -4.6380   -4.1748 H       1  UNL1        0.0424
     32 H          10.7285   -3.9288   -3.4537 H       1  UNL1        0.1219
     33 H          10.5293   -4.1808   -6.3863 H       1  UNL1        0.0424
     34 H          10.5224   -5.5380   -5.2424 H       1  UNL1        0.0424
     35 H          12.7847   -4.8489   -4.4195 H       1  UNL1        0.0290
     36 H          12.7856   -3.4907   -5.5493 H       1  UNL1        0.0290
     37 H          12.6072   -5.0918   -7.4764 H       1  UNL1        0.0422
     38 H          12.5999   -6.4511   -6.3441 H       1  UNL1        0.0422
     39 H          14.7662   -4.4883   -6.6404 H       1  UNL1        0.1182
     40 H          14.7608   -5.9956   -7.2629 H       1  UNL1        0.1182
@<TRIPOS>BOND
     1     1     2    1
     2     1    15    1
     3     1    16    1
     4     2     3    1
     5     2    17    1
     6     2    18    1
     7     3     4    1
     8     3    19    1
     9     3    20    1
    10     4     5    1
    11     4    21    1
    12     4    22    1
    13     5     6    1
    14     5    23    1
    15     6     7    1
    16     6    24    1
    17     6    25    1
    18     7     8    1
    19     7    26    1
    20     7    27    1
    21     8     9    1
    22     8    28    1
    23     8    29    1
    24     9    10    1
    25     9    30    1
    26     9    31    1
    27    10    11    1
    28    10    32    1
    29    11    12    1
    30    11    33    1
    31    11    34    1
    32    12    13    1
    33    12    35    1
    34    12    36    1
    35    13    14    1
    36    13    37    1
    37    13    38    1
    38    14    39    1
    39    14    40    1
