REMARK  13 active torsions:
REMARK  status: ('A' for Active; 'I' for Inactive)
REMARK    1  A    between atoms: N_1  and  C_2 
REMARK    2  A    between atoms: C_2  and  C_3 
REMARK    3  A    between atoms: C_3  and  C_4 
REMARK    4  A    between atoms: C_4  and  N_5 
REMARK    5  A    between atoms: N_5  and  C_6 
REMARK    6  A    between atoms: C_6  and  C_7 
REMARK    7  A    between atoms: C_7  and  C_8 
REMARK    8  A    between atoms: C_8  and  C_9 
REMARK    9  A    between atoms: C_9  and  N_10 
REMARK   10  A    between atoms: N_10  and  C_11 
REMARK   11  A    between atoms: C_11  and  C_12 
REMARK   12  A    between atoms: C_12  and  C_13 
REMARK   13  A    between atoms: C_13  and  N_14 
ROOT
ATOM      1  C   UNL d   1       6.881  -2.658  -3.211  0.00  0.00     0.032 C 
ENDROOT
BRANCH   1   2
ATOM      2  C   UNL d   1       6.378  -1.728  -2.107  0.00  0.00     0.269 C 
BRANCH   2   3
ATOM      3  N   UNL d   1       4.915  -1.727  -2.091  0.00  0.00     0.083 N 
ATOM      4  H   UNL d   1       4.562  -1.426  -3.001  0.00  0.00     0.315 HD
BRANCH   3   5
ATOM      5  C   UNL d   1       4.404  -0.834  -1.050  0.00  0.00     0.271 C 
BRANCH   5   6
ATOM      6  C   UNL d   1       2.874  -0.841  -1.055  0.00  0.00     0.059 C 
BRANCH   6   7
ATOM      7  C   UNL d   1       2.330   0.075   0.041  0.00  0.00     0.268 C 
BRANCH   7   8
ATOM      8  N   UNL d   1       0.871   0.078   0.033  0.00  0.00     0.078 N 
ATOM      9  H   UNL d   1       0.529   0.640   0.810  0.00  0.00     0.312 HD
ATOM     10  H   UNL d   1       0.526  -0.869   0.192  0.00  0.00     0.312 HD
ENDBRANCH   7   8
ENDBRANCH   6   7
ENDBRANCH   5   6
ENDBRANCH   3   5
ENDBRANCH   2   3
ENDBRANCH   1   2
BRANCH   1  11
ATOM     11  C   UNL d   1       8.410  -2.695  -3.242  0.00  0.00     0.032 C 
BRANCH  11  12
ATOM     12  C   UNL d   1       8.913  -3.624  -4.347  0.00  0.00     0.269 C 
BRANCH  12  13
ATOM     13  N   UNL d   1      10.376  -3.626  -4.362  0.00  0.00     0.083 N 
ATOM     14  H   UNL d   1      10.729  -3.929  -3.454  0.00  0.00     0.315 HD
BRANCH  13  15
ATOM     15  C   UNL d   1      10.887  -4.516  -5.405  0.00  0.00     0.271 C 
BRANCH  15  16
ATOM     16  C   UNL d   1      12.417  -4.513  -5.398  0.00  0.00     0.059 C 
BRANCH  16  17
ATOM     17  C   UNL d   1      12.960  -5.428  -6.495  0.00  0.00     0.268 C 
BRANCH  17  18
ATOM     18  N   UNL d   1      14.419  -5.434  -6.484  0.00  0.00     0.078 N 
ATOM     19  H   UNL d   1      14.766  -4.488  -6.640  0.00  0.00     0.312 HD
ATOM     20  H   UNL d   1      14.761  -5.996  -7.263  0.00  0.00     0.312 HD
ENDBRANCH  17  18
ENDBRANCH  16  17
ENDBRANCH  15  16
ENDBRANCH  13  15
ENDBRANCH  12  13
ENDBRANCH  11  12
ENDBRANCH   1  11
TORSDOF 13
