2GUN_SPM_B_521
 OpenBabel03221817243D

 40 39  0  0  0  0  0  0  0  0999 V2000
    0.8712    0.0776    0.0325 N   0  0  0  0  0  0  0  0  0  0  0  0
    2.3300    0.0748    0.0408 C   0  0  0  0  0  0  0  0  0  0  0  0
    2.8738   -0.8409   -1.0547 C   0  0  0  0  0  0  0  0  0  0  0  0
    4.4039   -0.8342   -1.0499 C   0  0  0  0  0  0  0  0  0  0  0  0
    4.9148   -1.7270   -2.0915 N   0  0  0  0  0  0  0  0  0  0  0  0
    6.3777   -1.7282   -2.1066 C   0  0  0  0  0  0  0  0  0  0  0  0
    6.8807   -2.6583   -3.2108 C   0  0  0  0  0  0  0  0  0  0  0  0
    8.4103   -2.6952   -3.2424 C   0  0  0  0  0  0  0  0  0  0  0  0
    8.9134   -3.6239   -4.3474 C   0  0  0  0  0  0  0  0  0  0  0  0
   10.3762   -3.6258   -4.3621 N   0  0  0  0  0  0  0  0  0  0  0  0
   10.8867   -4.5165   -5.4055 C   0  0  0  0  0  0  0  0  0  0  0  0
   12.4166   -4.5135   -5.3978 C   0  0  0  0  0  0  0  0  0  0  0  0
   12.9604   -5.4277   -6.4949 C   0  0  0  0  0  0  0  0  0  0  0  0
   14.4187   -5.4342   -6.4840 N   0  0  0  0  0  0  0  0  0  0  0  0
    0.5289    0.6403    0.8104 H   0  0  0  0  0  0  0  0  0  0  0  0
    0.5265   -0.8689    0.1921 H   0  0  0  0  0  0  0  0  0  0  0  0
    2.6854   -0.2571    1.0226 H   0  0  0  0  0  0  0  0  0  0  0  0
    2.6871    1.0989   -0.1135 H   0  0  0  0  0  0  0  0  0  0  0  0
    2.5033   -0.5090   -2.0332 H   0  0  0  0  0  0  0  0  0  0  0  0
    2.5077   -1.8643   -0.8998 H   0  0  0  0  0  0  0  0  0  0  0  0
    4.7638   -1.1659   -0.0688 H   0  0  0  0  0  0  0  0  0  0  0  0
    4.7654    0.1875   -1.2171 H   0  0  0  0  0  0  0  0  0  0  0  0
    4.5622   -1.4260   -3.0006 H   0  0  0  0  0  0  0  0  0  0  0  0
    6.7600   -2.0742   -1.1391 H   0  0  0  0  0  0  0  0  0  0  0  0
    6.7574   -0.7143   -2.2804 H   0  0  0  0  0  0  0  0  0  0  0  0
    6.5032   -2.3200   -4.1841 H   0  0  0  0  0  0  0  0  0  0  0  0
    6.4936   -3.6726   -3.0479 H   0  0  0  0  0  0  0  0  0  0  0  0
    8.7875   -3.0345   -2.2694 H   0  0  0  0  0  0  0  0  0  0  0  0
    8.7974   -1.6809   -3.4041 H   0  0  0  0  0  0  0  0  0  0  0  0
    8.5312   -3.2769   -5.3148 H   0  0  0  0  0  0  0  0  0  0  0  0
    8.5333   -4.6380   -4.1748 H   0  0  0  0  0  0  0  0  0  0  0  0
   10.7285   -3.9288   -3.4537 H   0  0  0  0  0  0  0  0  0  0  0  0
   10.5293   -4.1808   -6.3863 H   0  0  0  0  0  0  0  0  0  0  0  0
   10.5224   -5.5380   -5.2424 H   0  0  0  0  0  0  0  0  0  0  0  0
   12.7847   -4.8489   -4.4195 H   0  0  0  0  0  0  0  0  0  0  0  0
   12.7856   -3.4907   -5.5493 H   0  0  0  0  0  0  0  0  0  0  0  0
   12.6072   -5.0918   -7.4764 H   0  0  0  0  0  0  0  0  0  0  0  0
   12.5999   -6.4511   -6.3441 H   0  0  0  0  0  0  0  0  0  0  0  0
   14.7662   -4.4883   -6.6404 H   0  0  0  0  0  0  0  0  0  0  0  0
   14.7608   -5.9956   -7.2629 H   0  0  0  0  0  0  0  0  0  0  0  0
  1  2  1  0  0  0  0
  1 15  1  0  0  0  0
  1 16  1  0  0  0  0
  2  3  1  0  0  0  0
  2 17  1  0  0  0  0
  2 18  1  0  0  0  0
  3  4  1  0  0  0  0
  3 19  1  0  0  0  0
  3 20  1  0  0  0  0
  4  5  1  0  0  0  0
  4 21  1  0  0  0  0
  4 22  1  0  0  0  0
  5  6  1  0  0  0  0
  5 23  1  0  0  0  0
  6  7  1  0  0  0  0
  6 24  1  0  0  0  0
  6 25  1  0  0  0  0
  7  8  1  0  0  0  0
  7 26  1  0  0  0  0
  7 27  1  0  0  0  0
  8  9  1  0  0  0  0
  8 28  1  0  0  0  0
  8 29  1  0  0  0  0
  9 10  1  0  0  0  0
  9 30  1  0  0  0  0
  9 31  1  0  0  0  0
 10 11  1  0  0  0  0
 10 32  1  0  0  0  0
 11 12  1  0  0  0  0
 11 33  1  0  0  0  0
 11 34  1  0  0  0  0
 12 13  1  0  0  0  0
 12 35  1  0  0  0  0
 12 36  1  0  0  0  0
 13 14  1  0  0  0  0
 13 37  1  0  0  0  0
 13 38  1  0  0  0  0
 14 39  1  0  0  0  0
 14 40  1  0  0  0  0
M  END
$$$$
