REMARK  16 active torsions:
REMARK  status: ('A' for Active; 'I' for Inactive)
REMARK    1  A    between atoms: O_1  and  C_2 
REMARK    2  A    between atoms: C_2  and  C_3 
REMARK    3  A    between atoms: C_5  and  O_6 
REMARK    4  A    between atoms: C_7  and  O_6 
REMARK    5  A    between atoms: C_8  and  O_9 
REMARK    6  A    between atoms: C_10  and  N_11 
REMARK    7  A    between atoms: C_13  and  N_14 
REMARK    8  A    between atoms: C_15  and  O_16 
REMARK    9  A    between atoms: O_16  and  C_17 
REMARK   10  A    between atoms: C_19  and  C_20 
REMARK   11  A    between atoms: C_20  and  N_21 
REMARK   12  A    between atoms: C_22  and  O_23 
REMARK   13  A    between atoms: C_24  and  O_25 
REMARK   14  A    between atoms: C_26  and  N_27 
REMARK   15  A    between atoms: C_28  and  O_29 
REMARK   16  A    between atoms: C_30  and  O_31 
ROOT
ATOM      1  C   UNL d   1       4.729   1.512   9.118  0.00  0.00     0.186 C 
ATOM      2  C   UNL d   1       3.286   1.951   9.424  0.00  0.00     0.182 C 
ATOM      3  C   UNL d   1       3.030   2.269  10.899  0.00  0.00     0.251 C 
ATOM      4  C   UNL d   1       4.061   3.286  11.390  0.00  0.00     0.076 C 
ATOM      5  C   UNL d   1       5.459   2.657  11.349  0.00  0.00     0.251 C 
ATOM      6  C   UNL d   1       5.877   2.210   9.917  0.00  0.00     0.189 C 
ENDROOT
BRANCH   6   7
ATOM      7  O   UNL d   1       7.128   1.443   9.889  0.00  0.00    -0.349 OA
BRANCH   7   8
ATOM      8  C   UNL d   1       7.204   0.273  10.725  0.00  0.00     0.296 C 
ATOM      9  O   UNL d   1       6.312  -0.751  10.274  0.00  0.00    -0.349 OA
ATOM     10  C   UNL d   1       6.623  -1.192   8.942  0.00  0.00     0.183 C 
ATOM     11  C   UNL d   1       7.990  -1.879   8.903  0.00  0.00     0.179 C 
ATOM     12  C   UNL d   1       9.056  -0.918   9.449  0.00  0.00     0.187 C 
ATOM     13  C   UNL d   1       8.637  -0.346  10.814  0.00  0.00     0.303 C 
BRANCH  10  14
ATOM     14  C   UNL d   1       5.461  -2.094   8.476  0.00  0.00     0.301 C 
BRANCH  14  15
ATOM     15  N   UNL d   1       5.596  -2.535   7.084  0.00  0.00     0.080 N 
ATOM     16  H   UNL d   1       5.425  -1.728   6.476  0.00  0.00     0.312 HD
ATOM     17  H   UNL d   1       4.816  -3.168   6.884  0.00  0.00     0.312 HD
ENDBRANCH  14  15
ENDBRANCH  10  14
BRANCH  11  18
ATOM     18  O   UNL d   1       8.375  -2.246   7.570  0.00  0.00    -0.390 OA
ATOM     19  H   UNL d   1       7.553  -2.566   7.133  0.00  0.00     0.210 HD
ENDBRANCH  11  18
BRANCH  12  20
ATOM     20  O   UNL d   1      10.307  -1.622   9.572  0.00  0.00    -0.391 OA
ATOM     21  H   UNL d   1      10.381  -2.146   8.748  0.00  0.00     0.210 HD
ENDBRANCH  12  20
BRANCH  13  22
ATOM     22  N   UNL d   1       9.675   0.553  11.362  0.00  0.00     0.090 N 
ATOM     23  H   UNL d   1       9.686   1.402  10.803  0.00  0.00     0.313 HD
ATOM     24  H   UNL d   1      10.577   0.098  11.193  0.00  0.00     0.313 HD
ENDBRANCH  13  22
ENDBRANCH   7   8
ENDBRANCH   6   7
BRANCH   5  25
ATOM     25  N   UNL d   1       6.445   3.597  11.918  0.00  0.00     0.085 N 
ATOM     26  H   UNL d   1       6.166   3.864  12.864  0.00  0.00     0.313 HD
ATOM     27  H   UNL d   1       6.459   4.468  11.375  0.00  0.00     0.313 HD
ENDBRANCH   5  25
BRANCH   1  28
ATOM     28  O   UNL d   1       4.972   1.410   7.679  0.00  0.00    -0.348 OA
BRANCH  28  29
ATOM     29  C   UNL d   1       4.949   2.629   6.927  0.00  0.00     0.292 C 
ATOM     30  O   UNL d   1       3.641   3.196   6.912  0.00  0.00    -0.348 OA
ATOM     31  C   UNL d   1       3.310   3.610   5.584  0.00  0.00     0.179 C 
ATOM     32  C   UNL d   1       4.100   2.709   4.653  0.00  0.00     0.182 C 
ATOM     33  C   UNL d   1       5.357   2.385   5.456  0.00  0.00     0.204 C 
BRANCH  31  34
ATOM     34  C   UNL d   1       1.792   3.538   5.385  0.00  0.00     0.198 C 
BRANCH  34  35
ATOM     35  O   UNL d   1       1.324   2.188   5.401  0.00  0.00    -0.398 OA
ATOM     36  H   UNL d   1       0.361   2.223   5.267  0.00  0.00     0.209 HD
ENDBRANCH  34  35
ENDBRANCH  31  34
BRANCH  32  37
ATOM     37  O   UNL d   1       4.402   3.366   3.420  0.00  0.00    -0.390 OA
ATOM     38  H   UNL d   1       5.300   3.741   3.542  0.00  0.00     0.210 HD
ENDBRANCH  32  37
BRANCH  33  39
ATOM     39  O   UNL d   1       6.398   3.289   5.033  0.00  0.00    -0.388 OA
ATOM     40  H   UNL d   1       7.246   2.829   5.186  0.00  0.00     0.210 HD
ENDBRANCH  33  39
ENDBRANCH  28  29
ENDBRANCH   1  28
BRANCH   2  41
ATOM     41  O   UNL d   1       2.388   0.901   9.013  0.00  0.00    -0.391 OA
ATOM     42  H   UNL d   1       2.626   0.694   8.088  0.00  0.00     0.210 HD
ENDBRANCH   2  41
BRANCH   3  43
ATOM     43  N   UNL d   1       1.669   2.812  11.058  0.00  0.00     0.085 N 
ATOM     44  H   UNL d   1       1.036   2.119  10.642  0.00  0.00     0.313 HD
ATOM     45  H   UNL d   1       1.560   3.630  10.457  0.00  0.00     0.313 HD
ENDBRANCH   3  43
TORSDOF 16
