@<TRIPOS>MOLECULE
2KXM_RIO_A_101
 65 67 0 0 0
SMALL
GASTEIGER

@<TRIPOS>ATOM
      1 O           1.3239    2.1875    5.4009 O.3     1  UNL1       -0.3924
      2 C           1.7920    3.5376    5.3853 C.3     1  UNL1        0.0730
      3 C           3.3103    3.6099    5.5842 C.3     1  UNL1        0.1131
      4 H           3.6215    4.6568    5.4883 H       1  UNL1        0.0647
      5 O           3.6407    3.1956    6.9122 O.3     1  UNL1       -0.3405
      6 C           4.9494    2.6288    6.9269 C.3     1  UNL1        0.1884
      7 H           5.6296    3.3583    7.3743 H       1  UNL1        0.0938
      8 O           4.9724    1.4100    7.6791 O.3     1  UNL1       -0.3402
      9 C           4.7288    1.5122    9.1185 C.3     1  UNL1        0.1166
     10 H           4.7229    0.4745    9.4284 H       1  UNL1        0.0650
     11 C           3.2856    1.9514    9.4238 C.3     1  UNL1        0.0990
     12 H           2.9954    2.8349    8.8675 H       1  UNL1        0.0636
     13 O           2.3875    0.9015    9.0127 O.3     1  UNL1       -0.3876
     14 C           3.0300    2.2694   10.8992 C.3     1  UNL1        0.0351
     15 H           3.0830    1.3532   11.4995 H       1  UNL1        0.0485
     16 N           1.6687    2.8122   11.0580 N.3     1  UNL1       -0.3250
     17 C           4.0610    3.2863   11.3903 C.3     1  UNL1       -0.0175
     18 C           5.4592    2.6566   11.3486 C.3     1  UNL1        0.0355
     19 H           5.4331    1.7939   12.0223 H       1  UNL1        0.0485
     20 N           6.4453    3.5972   11.9180 N.3     1  UNL1       -0.3250
     21 C           5.8768    2.2100    9.9168 C.3     1  UNL1        0.1055
     22 H           6.1331    3.1241    9.3714 H       1  UNL1        0.0639
     23 O           7.1283    1.4433    9.8886 O.3     1  UNL1       -0.3422
     24 C           7.2038    0.2732   10.7252 C.3     1  UNL1        0.1776
     25 H           6.9277    0.5301   11.7500 H       1  UNL1        0.0927
     26 O           6.3120   -0.7506   10.2740 O.3     1  UNL1       -0.3425
     27 C           6.6235   -1.1920    8.9416 C.3     1  UNL1        0.1022
     28 H           6.6572   -0.3369    8.2611 H       1  UNL1        0.0636
     29 C           5.4611   -2.0939    8.4762 C.3     1  UNL1        0.0222
     30 N           5.5955   -2.5347    7.0836 N.3     1  UNL1       -0.3276
     31 C           7.9901   -1.8788    8.9031 C.3     1  UNL1        0.1100
     32 H           7.9857   -2.7943    9.5070 H       1  UNL1        0.0646
     33 O           8.3747   -2.2459    7.5701 O.3     1  UNL1       -0.3866
     34 C           9.0561   -0.9185    9.4494 C.3     1  UNL1        0.1033
     35 H           9.2325   -0.1064    8.7318 H       1  UNL1        0.0637
     36 O          10.3071   -1.6220    9.5719 O.3     1  UNL1       -0.3874
     37 C           8.6373   -0.3463   10.8137 C.3     1  UNL1        0.0853
     38 H           8.5848   -1.1937   11.5150 H       1  UNL1        0.0535
     39 N           9.6745    0.5531   11.3624 N.3     1  UNL1       -0.3211
     40 C           5.3569    2.3845    5.4558 C.3     1  UNL1        0.1341
     41 H           5.7022    1.3642    5.2621 H       1  UNL1        0.0671
     42 O           6.3982    3.2890    5.0331 O.3     1  UNL1       -0.3841
     43 C           4.1000    2.7094    4.6527 C.3     1  UNL1        0.1141
     44 H           3.5605    1.7843    4.4284 H       1  UNL1        0.0648
     45 O           4.4015    3.3658    3.4204 O.3     1  UNL1       -0.3864
     46 H           0.3607    2.2230    5.2673 H       1  UNL1        0.2095
     47 H           1.2809    4.0618    6.2004 H       1  UNL1        0.0584
     48 H           1.5066    3.9903    4.4309 H       1  UNL1        0.0584
     49 H           2.6256    0.6939    8.0876 H       1  UNL1        0.2100
     50 H           1.0360    2.1186   10.6419 H       1  UNL1        0.1185
     51 H           1.5597    3.6302   10.4570 H       1  UNL1        0.1185
     52 H           3.8182    3.5912   12.4160 H       1  UNL1        0.0297
     53 H           4.0338    4.1928   10.7711 H       1  UNL1        0.0297
     54 H           6.1659    3.8639   12.8639 H       1  UNL1        0.1185
     55 H           6.4594    4.4683   11.3746 H       1  UNL1        0.1185
     56 H           4.5117   -1.5570    8.5815 H       1  UNL1        0.0448
     57 H           5.3806   -2.9630    9.1373 H       1  UNL1        0.0448
     58 H           5.4247   -1.7277    6.4765 H       1  UNL1        0.1183
     59 H           4.8160   -3.1683    6.8844 H       1  UNL1        0.1183
     60 H           7.5529   -2.5664    7.1330 H       1  UNL1        0.2100
     61 H          10.3811   -2.1455    8.7481 H       1  UNL1        0.2100
     62 H           9.6858    1.4022   10.8026 H       1  UNL1        0.1187
     63 H          10.5770    0.0976   11.1930 H       1  UNL1        0.1187
     64 H           7.2456    2.8293    5.1864 H       1  UNL1        0.2101
     65 H           5.3002    3.7407    3.5421 H       1  UNL1        0.2100
@<TRIPOS>BOND
     1     1     2    1
     2     1    46    1
     3     2     3    1
     4     2    47    1
     5     2    48    1
     6     3     4    1
     7     3     5    1
     8     3    43    1
     9     5     6    1
    10     6    40    1
    11     6     8    1
    12     6     7    1
    13     9    11    1
    14     9    10    1
    15     9     8    1
    16    11    12    1
    17    11    13    1
    18    11    14    1
    19    13    49    1
    20    14    15    1
    21    14    16    1
    22    14    17    1
    23    16    50    1
    24    16    51    1
    25    17    18    1
    26    17    52    1
    27    17    53    1
    28    18    19    1
    29    18    20    1
    30    18    21    1
    31    20    54    1
    32    20    55    1
    33    21     9    1
    34    21    23    1
    35    21    22    1
    36    23    24    1
    37    24    25    1
    38    24    26    1
    39    24    37    1
    40    26    27    1
    41    27    28    1
    42    27    29    1
    43    27    31    1
    44    29    30    1
    45    29    56    1
    46    29    57    1
    47    30    58    1
    48    30    59    1
    49    31    33    1
    50    31    32    1
    51    33    60    1
    52    34    31    1
    53    34    35    1
    54    34    36    1
    55    36    61    1
    56    37    34    1
    57    37    39    1
    58    37    38    1
    59    39    62    1
    60    39    63    1
    61    40    41    1
    62    40    42    1
    63    40    43    1
    64    42    64    1
    65    43    44    1
    66    43    45    1
    67    45    65    1
