2KXM_RIO_A_101
 OpenBabel03221817253D

 65 67  0  0  1  0  0  0  0  0999 V2000
    1.3239    2.1875    5.4009 O   0  0  0  0  0  0  0  0  0  0  0  0
    1.7920    3.5376    5.3853 C   0  0  0  0  0  0  0  0  0  0  0  0
    3.3103    3.6099    5.5842 C   0  0  1  0  0  0  0  0  0  0  0  0
    3.6215    4.6568    5.4883 H   0  0  0  0  0  0  0  0  0  0  0  0
    3.6407    3.1956    6.9122 O   0  0  0  0  0  0  0  0  0  0  0  0
    4.9494    2.6288    6.9269 C   0  0  1  0  0  0  0  0  0  0  0  0
    5.6296    3.3583    7.3743 H   0  0  0  0  0  0  0  0  0  0  0  0
    4.9724    1.4100    7.6791 O   0  0  0  0  0  0  0  0  0  0  0  0
    4.7288    1.5122    9.1185 C   0  0  2  0  0  0  0  0  0  0  0  0
    4.7229    0.4745    9.4284 H   0  0  0  0  0  0  0  0  0  0  0  0
    3.2856    1.9514    9.4238 C   0  0  1  0  0  0  0  0  0  0  0  0
    2.9954    2.8349    8.8675 H   0  0  0  0  0  0  0  0  0  0  0  0
    2.3875    0.9015    9.0127 O   0  0  0  0  0  0  0  0  0  0  0  0
    3.0300    2.2694   10.8992 C   0  0  2  0  0  0  0  0  0  0  0  0
    3.0830    1.3532   11.4995 H   0  0  0  0  0  0  0  0  0  0  0  0
    1.6687    2.8122   11.0580 N   0  0  0  0  0  0  0  0  0  0  0  0
    4.0610    3.2863   11.3903 C   0  0  0  0  0  0  0  0  0  0  0  0
    5.4592    2.6566   11.3486 C   0  0  2  0  0  0  0  0  0  0  0  0
    5.4331    1.7939   12.0223 H   0  0  0  0  0  0  0  0  0  0  0  0
    6.4453    3.5972   11.9180 N   0  0  0  0  0  0  0  0  0  0  0  0
    5.8768    2.2100    9.9168 C   0  0  1  0  0  0  0  0  0  0  0  0
    6.1331    3.1241    9.3714 H   0  0  0  0  0  0  0  0  0  0  0  0
    7.1283    1.4433    9.8886 O   0  0  0  0  0  0  0  0  0  0  0  0
    7.2038    0.2732   10.7252 C   0  0  1  0  0  0  0  0  0  0  0  0
    6.9277    0.5301   11.7500 H   0  0  0  0  0  0  0  0  0  0  0  0
    6.3120   -0.7506   10.2740 O   0  0  0  0  0  0  0  0  0  0  0  0
    6.6235   -1.1920    8.9416 C   0  0  2  0  0  0  0  0  0  0  0  0
    6.6572   -0.3369    8.2611 H   0  0  0  0  0  0  0  0  0  0  0  0
    5.4611   -2.0939    8.4762 C   0  0  0  0  0  0  0  0  0  0  0  0
    5.5955   -2.5347    7.0836 N   0  0  0  0  0  0  0  0  0  0  0  0
    7.9901   -1.8788    8.9031 C   0  0  1  0  0  0  0  0  0  0  0  0
    7.9857   -2.7943    9.5070 H   0  0  0  0  0  0  0  0  0  0  0  0
    8.3747   -2.2459    7.5701 O   0  0  0  0  0  0  0  0  0  0  0  0
    9.0561   -0.9185    9.4494 C   0  0  2  0  0  0  0  0  0  0  0  0
    9.2325   -0.1064    8.7318 H   0  0  0  0  0  0  0  0  0  0  0  0
   10.3071   -1.6220    9.5719 O   0  0  0  0  0  0  0  0  0  0  0  0
    8.6373   -0.3463   10.8137 C   0  0  1  0  0  0  0  0  0  0  0  0
    8.5848   -1.1937   11.5150 H   0  0  0  0  0  0  0  0  0  0  0  0
    9.6745    0.5531   11.3624 N   0  0  0  0  0  0  0  0  0  0  0  0
    5.3569    2.3845    5.4558 C   0  0  2  0  0  0  0  0  0  0  0  0
    5.7022    1.3642    5.2621 H   0  0  0  0  0  0  0  0  0  0  0  0
    6.3982    3.2890    5.0331 O   0  0  0  0  0  0  0  0  0  0  0  0
    4.1000    2.7094    4.6527 C   0  0  2  0  0  0  0  0  0  0  0  0
    3.5605    1.7843    4.4284 H   0  0  0  0  0  0  0  0  0  0  0  0
    4.4015    3.3658    3.4204 O   0  0  0  0  0  0  0  0  0  0  0  0
    0.3607    2.2230    5.2673 H   0  0  0  0  0  0  0  0  0  0  0  0
    1.2809    4.0618    6.2004 H   0  0  0  0  0  0  0  0  0  0  0  0
    1.5066    3.9903    4.4309 H   0  0  0  0  0  0  0  0  0  0  0  0
    2.6256    0.6939    8.0876 H   0  0  0  0  0  0  0  0  0  0  0  0
    1.0360    2.1186   10.6419 H   0  0  0  0  0  0  0  0  0  0  0  0
    1.5597    3.6302   10.4570 H   0  0  0  0  0  0  0  0  0  0  0  0
    3.8182    3.5912   12.4160 H   0  0  0  0  0  0  0  0  0  0  0  0
    4.0338    4.1928   10.7711 H   0  0  0  0  0  0  0  0  0  0  0  0
    6.1659    3.8639   12.8639 H   0  0  0  0  0  0  0  0  0  0  0  0
    6.4594    4.4683   11.3746 H   0  0  0  0  0  0  0  0  0  0  0  0
    4.5117   -1.5570    8.5815 H   0  0  0  0  0  0  0  0  0  0  0  0
    5.3806   -2.9630    9.1373 H   0  0  0  0  0  0  0  0  0  0  0  0
    5.4247   -1.7277    6.4765 H   0  0  0  0  0  0  0  0  0  0  0  0
    4.8160   -3.1683    6.8844 H   0  0  0  0  0  0  0  0  0  0  0  0
    7.5529   -2.5664    7.1330 H   0  0  0  0  0  0  0  0  0  0  0  0
   10.3811   -2.1455    8.7481 H   0  0  0  0  0  0  0  0  0  0  0  0
    9.6858    1.4022   10.8026 H   0  0  0  0  0  0  0  0  0  0  0  0
   10.5770    0.0976   11.1930 H   0  0  0  0  0  0  0  0  0  0  0  0
    7.2456    2.8293    5.1864 H   0  0  0  0  0  0  0  0  0  0  0  0
    5.3002    3.7407    3.5421 H   0  0  0  0  0  0  0  0  0  0  0  0
  1  2  1  0  0  0  0
  1 46  1  0  0  0  0
  2  3  1  0  0  0  0
  2 47  1  0  0  0  0
  2 48  1  0  0  0  0
  3  4  1  0  0  0  0
  3  5  1  0  0  0  0
  3 43  1  6  0  0  0
  5  6  1  0  0  0  0
  6 40  1  6  0  0  0
  6  8  1  0  0  0  0
  6  7  1  0  0  0  0
  9 11  1  1  0  0  0
  9 10  1  0  0  0  0
  9  8  1  0  0  0  0
 11 12  1  0  0  0  0
 11 13  1  0  0  0  0
 11 14  1  1  0  0  0
 13 49  1  0  0  0  0
 14 15  1  1  0  0  0
 14 16  1  0  0  0  0
 14 17  1  0  0  0  0
 16 50  1  0  0  0  0
 16 51  1  0  0  0  0
 17 18  1  0  0  0  0
 17 52  1  0  0  0  0
 17 53  1  0  0  0  0
 18 19  1  0  0  0  0
 18 20  1  0  0  0  0
 18 21  1  6  0  0  0
 20 54  1  0  0  0  0
 20 55  1  0  0  0  0
 21  9  1  6  0  0  0
 21 23  1  0  0  0  0
 21 22  1  0  0  0  0
 23 24  1  0  0  0  0
 24 25  1  0  0  0  0
 24 26  1  0  0  0  0
 24 37  1  6  0  0  0
 26 27  1  0  0  0  0
 27 28  1  0  0  0  0
 27 29  1  0  0  0  0
 27 31  1  6  0  0  0
 29 30  1  0  0  0  0
 29 56  1  0  0  0  0
 29 57  1  0  0  0  0
 30 58  1  0  0  0  0
 30 59  1  0  0  0  0
 31 33  1  0  0  0  0
 31 32  1  1  0  0  0
 33 60  1  0  0  0  0
 34 31  1  6  0  0  0
 34 35  1  0  0  0  0
 34 36  1  0  0  0  0
 36 61  1  0  0  0  0
 37 34  1  6  0  0  0
 37 39  1  0  0  0  0
 37 38  1  0  0  0  0
 39 62  1  0  0  0  0
 39 63  1  0  0  0  0
 40 41  1  0  0  0  0
 40 42  1  0  0  0  0
 40 43  1  6  0  0  0
 42 64  1  0  0  0  0
 43 44  1  6  0  0  0
 43 45  1  0  0  0  0
 45 65  1  0  0  0  0
M  END
$$$$
