REMARK  7 active torsions:
REMARK  status: ('A' for Active; 'I' for Inactive)
REMARK    1  A    between atoms: C_1  and  OXT_3 
REMARK    2  A    between atoms: C_1  and  CA_4 
REMARK    3  A    between atoms: CA_4  and  N_5 
REMARK    4  A    between atoms: CA_4  and  C_6 
REMARK    5  A    between atoms: C_6  and  C_7 
REMARK    6  A    between atoms: C_7  and  C_8 
REMARK    7  A    between atoms: C_8  and  N_9 
REMARK       I    between atoms: N_9  and  C_10 
REMARK       I    between atoms: C_10  and  N_12 
ROOT
ATOM      1  C   UNL d   1       3.157  -1.374  -0.133  0.00  0.00     0.048 C 
ENDROOT
BRANCH   1   2
ATOM      2  CA  UNL d   1       2.586   0.034   0.073  0.00  0.00     0.314 C 
BRANCH   2   3
ATOM      3  C   UNL d   1       1.050  -0.060   0.062  0.00  0.00     0.173 C 
ATOM      4  O   UNL d   1       0.353  -0.130  -0.936  0.00  0.00    -0.648 OA
BRANCH   3   5
ATOM      5  OXT UNL d   1       0.556  -0.097   1.329  0.00  0.00    -0.775 OA
ATOM      6  HXT UNL d   1       1.339  -0.014   1.929  0.00  0.00     0.167 HD
ENDBRANCH   3   5
ENDBRANCH   2   3
BRANCH   2   7
ATOM      7  N   UNL d   1       2.999   0.612   1.386  0.00  0.00     0.093 N 
ATOM      8  H1  UNL d   1       2.696   1.593   1.398  0.00  0.00     0.314 HD
ATOM      9  H2  UNL d   1       4.020   0.680   1.395  0.00  0.00     0.314 HD
ENDBRANCH   2   7
ENDBRANCH   1   2
BRANCH   1  10
ATOM     10  C   UNL d   1       4.686  -1.422  -0.189  0.00  0.00     0.022 C 
BRANCH  10  11
ATOM     11  C   UNL d   1       5.184  -2.850  -0.397  0.00  0.00     0.124 C 
BRANCH  11  12
ATOM     12  N   UNL d   1       6.630  -2.901  -0.434  0.00  0.00    -0.343 N 
ATOM     13  C   UNL d   1       7.317  -2.740  -1.600  0.00  0.00     0.313 C 
ATOM     14  O   UNL d   1       6.829  -2.454  -2.681  0.00  0.00    -0.248 OA
ATOM     15  N   UNL d   1       8.649  -2.946  -1.445  0.00  0.00    -0.352 N 
ATOM     16  H   UNL d   1       9.070  -2.665  -0.574  0.00  0.00     0.160 HD
ATOM     17  H   UNL d   1       9.186  -2.726  -2.275  0.00  0.00     0.160 HD
ATOM     18  H   UNL d   1       7.112  -3.369   0.319  0.00  0.00     0.164 HD
ENDBRANCH  11  12
ENDBRANCH  10  11
ENDBRANCH   1  10
TORSDOF 7
