1KOD_CIR_B_1
 OpenBabel03221816523D

 25 24  0  0  1  0  0  0  0  0999 V2000
    1.0500   -0.0599    0.0620 C   0  0  0  0  0  0  0  0  0  0  0  0
    0.3527   -0.1295   -0.9362 O   0  0  0  0  0  0  0  0  0  0  0  0
    0.5560   -0.0967    1.3291 O   0  0  0  0  0  0  0  0  0  0  0  0
    2.5860    0.0339    0.0726 C   0  0  1  0  0  0  0  0  0  0  0  0
    2.8973    0.7169   -0.7250 H   0  0  0  0  0  0  0  0  0  0  0  0
    2.9989    0.6120    1.3857 N   0  0  0  0  0  0  0  0  0  0  0  0
    3.1572   -1.3743   -0.1332 C   0  0  0  0  0  0  0  0  0  0  0  0
    4.6855   -1.4218   -0.1887 C   0  0  0  0  0  0  0  0  0  0  0  0
    5.1836   -2.8499   -0.3970 C   0  0  0  0  0  0  0  0  0  0  0  0
    6.6301   -2.9012   -0.4337 N   0  0  0  0  0  0  0  0  0  0  0  0
    7.3171   -2.7403   -1.5997 C   0  0  0  0  0  0  0  0  0  0  0  0
    6.8293   -2.4539   -2.6811 O   0  0  0  0  0  0  0  0  0  0  0  0
    8.6489   -2.9458   -1.4454 N   0  0  0  0  0  0  0  0  0  0  0  0
    1.3387   -0.0139    1.9288 H   0  0  0  0  0  0  0  0  0  0  0  0
    2.6956    1.5934    1.3976 H   0  0  0  0  0  0  0  0  0  0  0  0
    4.0202    0.6798    1.3945 H   0  0  0  0  0  0  0  0  0  0  0  0
    2.7551   -1.7861   -1.0687 H   0  0  0  0  0  0  0  0  0  0  0  0
    2.8003   -2.0394    0.6646 H   0  0  0  0  0  0  0  0  0  0  0  0
    5.1175   -1.0357    0.7416 H   0  0  0  0  0  0  0  0  0  0  0  0
    5.0464   -0.7756   -0.9980 H   0  0  0  0  0  0  0  0  0  0  0  0
    4.7833   -3.2688   -1.3272 H   0  0  0  0  0  0  0  0  0  0  0  0
    4.8597   -3.4911    0.4304 H   0  0  0  0  0  0  0  0  0  0  0  0
    7.1119   -3.3685    0.3194 H   0  0  0  0  0  0  0  0  0  0  0  0
    9.0702   -2.6647   -0.5736 H   0  0  0  0  0  0  0  0  0  0  0  0
    9.1859   -2.7258   -2.2748 H   0  0  0  0  0  0  0  0  0  0  0  0
  1  2  2  0  0  0  0
  1  3  1  0  0  0  0
  1  4  1  0  0  0  0
  3 14  1  0  0  0  0
  4  5  1  6  0  0  0
  4  6  1  0  0  0  0
  4  7  1  0  0  0  0
  6 15  1  0  0  0  0
  6 16  1  0  0  0  0
  7  8  1  0  0  0  0
  7 17  1  0  0  0  0
  7 18  1  0  0  0  0
  8  9  1  0  0  0  0
  8 19  1  0  0  0  0
  8 20  1  0  0  0  0
  9 10  1  0  0  0  0
  9 21  1  0  0  0  0
  9 22  1  0  0  0  0
 10 11  1  0  0  0  0
 10 23  1  0  0  0  0
 11 12  2  0  0  0  0
 11 13  1  0  0  0  0
 13 24  1  0  0  0  0
 13 25  1  0  0  0  0
M  END
$$$$
