@<TRIPOS>MOLECULE
1KOD_CIR_B_1
 25 24 0 0 0
SMALL
GASTEIGER

@<TRIPOS>ATOM
      1 C           1.0500   -0.0599    0.0620 C.2     1  UNL1        0.3217
      2 O           0.3527   -0.1295   -0.9362 O.2     1  UNL1       -0.2493
      3 OXT         0.5560   -0.0967    1.3291 O.3     1  UNL1       -0.4795
      4 CA          2.5860    0.0339    0.0726 C.3     1  UNL1        0.1033
      5 HA          2.8973    0.7169   -0.7250 H       1  UNL1        0.0574
      6 N           2.9989    0.6120    1.3857 N.3     1  UNL1       -0.3184
      7 C           3.1572   -1.3743   -0.1332 C.3     1  UNL1       -0.0260
      8 C           4.6855   -1.4218   -0.1887 C.3     1  UNL1       -0.0354
      9 C           5.1836   -2.8499   -0.3970 C.3     1  UNL1        0.0131
     10 N           6.6301   -2.9012   -0.4337 N.am    1  UNL1       -0.2996
     11 C           7.3171   -2.7403   -1.5997 C.2     1  UNL1        0.2971
     12 O           6.8293   -2.4539   -2.6811 O.2     1  UNL1       -0.2531
     13 N           8.6489   -2.9458   -1.4454 N.am    1  UNL1       -0.3134
     14 HXT         1.3387   -0.0139    1.9288 H       1  UNL1        0.2951
     15 H1          2.6956    1.5934    1.3976 H       1  UNL1        0.1190
     16 H2          4.0202    0.6798    1.3945 H       1  UNL1        0.1190
     17 H           2.7551   -1.7861   -1.0687 H       1  UNL1        0.0286
     18 H           2.8003   -2.0394    0.6646 H       1  UNL1        0.0286
     19 H           5.1175   -1.0357    0.7416 H       1  UNL1        0.0281
     20 H           5.0464   -0.7756   -0.9980 H       1  UNL1        0.0281
     21 H           4.7833   -3.2688   -1.3272 H       1  UNL1        0.0462
     22 H           4.8597   -3.4911    0.4304 H       1  UNL1        0.0462
     23 H           7.1119   -3.3685    0.3194 H       1  UNL1        0.1502
     24 H           9.0702   -2.6647   -0.5736 H       1  UNL1        0.1465
     25 H           9.1859   -2.7258   -2.2748 H       1  UNL1        0.1465
@<TRIPOS>BOND
     1     1     2    2
     2     1     3    1
     3     1     4    1
     4     3    14    1
     5     4     5    1
     6     4     6    1
     7     4     7    1
     8     6    15    1
     9     6    16    1
    10     7     8    1
    11     7    17    1
    12     7    18    1
    13     8     9    1
    14     8    19    1
    15     8    20    1
    16     9    10    1
    17     9    21    1
    18     9    22    1
    19    10    11   am
    20    10    23    1
    21    11    12    2
    22    11    13   am
    23    13    24    1
    24    13    25    1
