2O3V_N33_A_50
 OpenBabel10091713573D
Coordinates from PDB:2O3V:A:50 Model:1 without hydrogens
 35 37  0  0  0  0  0  0  0  0999 V2000
    2.6460   -8.6990   45.4110 C   0  0  2  0  0  0  0  0  0  0  0  0
    3.0900   -7.7390   44.4040 O   0  0  0  0  0  0  0  0  0  0  0  0
    1.1220   -8.8520   45.1070 C   0  0  2  0  0  0  0  0  0  0  0  0
    0.8970   -9.3260   43.7210 N   0  0  0  0  0  0  0  0  0  0  0  0
    0.3400   -7.4870   45.3410 C   0  0  1  0  0  0  0  0  0  0  0  0
   -1.0990   -7.6420   45.0040 O   0  0  0  0  0  0  0  0  0  0  0  0
    0.6130   -7.0330   46.8420 C   0  0  2  0  0  0  0  0  0  0  0  0
   -0.0280   -5.8050   47.1370 O   0  0  0  0  0  0  0  0  0  0  0  0
    2.1610   -6.9060   47.1090 C   0  0  2  0  0  0  0  0  0  0  0  0
    2.8290   -8.1870   46.7970 O   0  0  0  0  0  0  0  0  0  0  0  0
    2.4520   -6.5070   48.5550 C   0  0  0  0  0  0  0  0  0  0  0  0
    3.8360   -6.3980   48.7820 O   0  0  0  0  0  0  0  0  0  0  0  0
    6.7080   -6.1910   42.5490 C   0  0  2  0  0  0  0  0  0  0  0  0
    8.0960   -5.6630   42.3850 N   0  0  0  0  0  0  0  0  0  0  0  0
    5.8540   -5.2090   43.4610 C   0  0  0  0  0  0  0  0  0  0  0  0
    4.3870   -5.7990   43.6290 C   0  0  2  0  0  0  0  0  0  0  0  0
    3.5780   -4.9050   44.4850 N   0  0  0  0  0  0  0  0  0  0  0  0
    4.4570   -7.2450   44.2720 C   0  0  2  0  0  0  0  0  0  0  0  0
    5.2990   -8.1970   43.3770 C   0  0  2  0  0  0  0  0  0  0  0  0
    5.3530   -9.4890   44.0470 O   0  0  0  0  0  0  0  0  0  0  0  0
    6.7260   -7.6250   43.2080 C   0  0  1  0  0  0  0  0  0  0  0  0
    7.4670   -8.5040   42.3880 O   0  0  0  0  0  0  0  0  0  0  0  0
   -5.6970   -9.2700   48.4240 C   0  0  2  0  0  0  0  0  0  0  0  0
   -5.1610   -8.5250   49.5390 O   0  0  0  0  0  0  0  0  0  0  0  0
   -4.6040   -9.2870   47.3000 C   0  0  2  0  0  0  0  0  0  0  0  0
   -3.3370   -9.8800   47.7980 N   0  0  0  0  0  0  0  0  0  0  0  0
   -4.3410   -7.8290   46.7170 C   0  0  1  0  0  0  0  0  0  0  0  0
   -3.3570   -7.8200   45.6510 O   0  0  0  0  0  0  0  0  0  0  0  0
   -5.6950   -7.2530   46.1940 C   0  0  2  0  0  0  0  0  0  0  0  0
   -5.5240   -5.9500   45.6720 O   0  0  0  0  0  0  0  0  0  0  0  0
   -6.7680   -7.2580   47.3550 C   0  0  2  0  0  0  0  0  0  0  0  0
   -6.9310   -8.6260   47.8980 O   0  0  0  0  0  0  0  0  0  0  0  0
   -8.1190   -6.7450   46.8800 C   0  0  0  0  0  0  0  0  0  0  0  0
   -9.0520   -6.7710   47.9330 O   0  0  0  0  0  0  0  0  0  0  0  0
   -2.0180   -7.6540   46.2030 C   0  0  0  0  0  0  0  0  0  0  0  0
  1  2  1  6  0  0  0
  1  3  1  0  0  0  0
  1 10  1  0  0  0  0
  3  4  1  6  0  0  0
  3  5  1  0  0  0  0
  5  6  1  1  0  0  0
  5  7  1  0  0  0  0
  6 35  1  0  0  0  0
  7  9  1  0  0  0  0
  7  8  1  6  0  0  0
  9 10  1  0  0  0  0
  9 11  1  1  0  0  0
 11 12  1  0  0  0  0
 13 14  1  1  0  0  0
 13 21  1  0  0  0  0
 13 15  1  0  0  0  0
 15 16  1  0  0  0  0
 16 18  1  0  0  0  0
 16 17  1  1  0  0  0
 18  2  1  6  0  0  0
 18 19  1  0  0  0  0
 19 21  1  0  0  0  0
 19 20  1  1  0  0  0
 21 22  1  6  0  0  0
 23 25  1  0  0  0  0
 23 32  1  0  0  0  0
 23 24  1  1  0  0  0
 25 27  1  0  0  0  0
 25 26  1  1  0  0  0
 27 28  1  6  0  0  0
 27 29  1  0  0  0  0
 28 35  1  0  0  0  0
 29 30  1  1  0  0  0
 29 31  1  0  0  0  0
 31 33  1  6  0  0  0
 31 32  1  0  0  0  0
 33 34  1  0  0  0  0
A    1
C11
A    2
O11
A    3
C21
A    4
N21
A    5
C31
A    6
O31
A    7
C41
A    8
O41
A    9
C51
A   10
O51
A   11
C61
A   12
O61
A   13
C12
A   14
N12
A   15
C22
A   16
C32
A   17
N32
A   18
C42
A   19
C52
A   20
O52
A   21
C62
A   22
O62
A   23
C13
A   24
O13
A   25
C23
A   26
N23
A   27
C33
A   28
O33
A   29
C43
A   30
O43
A   31
C53
A   32
O53
A   33
C63
A   34
O63
A   35
C77
M  END
>  <InstanceId>
2O3V_N33_A_50

>  <ChemCompId>
N33

>  <PdbId>
2O3V

>  <ChainId>
A

>  <ResidueNumber>
50

>  <InsertionCode>


>  <Model>
1

>  <AltIds>


>  <MissingHeavyAtoms>
0

>  <ObservedFormula>
C19 N4 O12

>  <Name>
(2S,3R,4R,5S,6R)-3-AMINO-4-({[(2S,3R,4R,5S,6R)-3-AMINO-2-{[(1R,2R,3S,4R,6S)-4,6-DIAMINO-2,3-DIHYDROXYCYCLOHEXYL]OXY}-5-HYDROXY-6-(HYDROXYMETHYL)TETRAHYDRO-2H-PYRAN-4-YL]OXY}METHOXY)-6-(HYDROXYMETHYL)TETRAHYDRO-2H-PYRAN-2,5-DIOL

>  <SystematicName>
(2S,3R,4R,5S,6R)-3-amino-4-[[(2S,3R,4R,5S,6R)-3-amino-2-[(1R,2R,3S,4R,6S)-4,6-diamino-2,3-dihydroxy-cyclohexyl]oxy-5-hydroxy-6-(hydroxymethyl)oxan-4-yl]oxymethoxy]-6-(hydroxymethyl)oxane-2,5-diol

>  <Synonyms>


>  <Type>
NON-POLYMER

>  <Formula>
C19 H38 N4 O12

>  <MolecularWeight>
514.525

>  <ModifiedDate>
2011-06-04

>  <Parent>


>  <OneLetterCode>


>  <SubcomponentList>


>  <AmbiguousFlag>


>  <InChI>
InChI=1S/C19H38N4O12/c20-5-1-6(21)15(14(29)11(5)26)35-19-10(23)17(13(28)8(3-25)34-19)32-4-31-16-9(22)18(30)33-7(2-24)12(16)27/h5-19,24-30H,1-4,20-23H2/t5-,6+,7-,8-,9-,10-,11+,12-,13-,14-,15-,16-,17-,18+,19-/m1/s1

>  <InChIKey>
BKAACSMFIQVWGC-LZHQQFSOSA-N

>  <SMILES>
C1[C@H]([C@@H]([C@H]([C@@H]([C@H]1N)O[C@@H]2[C@@H]([C@H]([C@@H]([C@H](O2)CO)O)OCO[C@@H]3[C@H]([C@H](O[C@@H]([C@H]3O)CO)O)N)N)O)O)N

$$$$
