@<TRIPOS>MOLECULE
2O3V_N33_A_50
 35 37 0 0 0
SMALL
GASTEIGER
****
Coordinates from PDB:2O3V:A:50 Model:1 without hydrogens
@<TRIPOS>ATOM
      1 C           2.6460   -8.6990   45.4110 C.3     1  UNL1        0.2560
      2 O           3.0900   -7.7390   44.4040 O.3     1  UNL1       -0.3277
      3 C           1.1220   -8.8520   45.1070 C.3     1  UNL1        0.1776
      4 N           0.8970   -9.3260   43.7210 N.3     1  UNL1       -0.1249
      5 C           0.3400   -7.4870   45.3410 C.3     1  UNL1        0.1731
      6 O          -1.0990   -7.6420   45.0040 O.3     1  UNL1       -0.3249
      7 C           0.6130   -7.0330   46.8420 C.3     1  UNL1        0.2101
      8 O          -0.0280   -5.8050   47.1370 O.3     1  UNL1       -0.2178
      9 C           2.1610   -6.9060   47.1090 C.3     1  UNL1        0.1833
     10 O           2.8290   -8.1870   46.7970 O.3     1  UNL1       -0.3264
     11 C           2.4520   -6.5070   48.5550 C.3     1  UNL1        0.2142
     12 O           3.8360   -6.3980   48.7820 O.3     1  UNL1       -0.2176
     13 C           6.7080   -6.1910   42.5490 C.3     1  UNL1        0.1262
     14 N           8.0960   -5.6630   42.3850 N.3     1  UNL1       -0.1301
     15 C           5.8540   -5.2090   43.4610 C.3     1  UNL1        0.0433
     16 C           4.3870   -5.7990   43.6290 C.3     1  UNL1        0.1231
     17 N           3.5780   -4.9050   44.4850 N.3     1  UNL1       -0.1302
     18 C           4.4570   -7.2450   44.2720 C.3     1  UNL1        0.1681
     19 C           5.2990   -8.1970   43.3770 C.3     1  UNL1        0.2119
     20 O           5.3530   -9.4890   44.0470 O.3     1  UNL1       -0.2177
     21 C           6.7260   -7.6250   43.2080 C.3     1  UNL1        0.2020
     22 O           7.4670   -8.5040   42.3880 O.3     1  UNL1       -0.2188
     23 C          -5.6970   -9.2700   48.4240 C.3     1  UNL1        0.2892
     24 O          -5.1610   -8.5250   49.5390 O.3     1  UNL1       -0.1882
     25 C          -4.6040   -9.2870   47.3000 C.3     1  UNL1        0.1805
     26 N          -3.3370   -9.8800   47.7980 N.3     1  UNL1       -0.1248
     27 C          -4.3410   -7.8290   46.7170 C.3     1  UNL1        0.1732
     28 O          -3.3570   -7.8200   45.6510 O.3     1  UNL1       -0.3249
     29 C          -5.6950   -7.2530   46.1940 C.3     1  UNL1        0.2101
     30 O          -5.5240   -5.9500   45.6720 O.3     1  UNL1       -0.2178
     31 C          -6.7680   -7.2580   47.3550 C.3     1  UNL1        0.1834
     32 O          -6.9310   -8.6260   47.8980 O.3     1  UNL1       -0.3244
     33 C          -8.1190   -6.7450   46.8800 C.3     1  UNL1        0.2142
     34 O          -9.0520   -6.7710   47.9330 O.3     1  UNL1       -0.2176
     35 C          -2.0180   -7.6540   46.2030 C.3     1  UNL1        0.2941
@<TRIPOS>BOND
     1     1     2    1
     2     1     3    1
     3     1    10    1
     4     3     4    1
     5     3     5    1
     6     5     6    1
     7     5     7    1
     8     6    35    1
     9     7     9    1
    10     7     8    1
    11     9    10    1
    12     9    11    1
    13    11    12    1
    14    13    14    1
    15    13    21    1
    16    13    15    1
    17    15    16    1
    18    16    18    1
    19    16    17    1
    20    18     2    1
    21    18    19    1
    22    19    21    1
    23    19    20    1
    24    21    22    1
    25    23    25    1
    26    23    32    1
    27    23    24    1
    28    25    27    1
    29    25    26    1
    30    27    28    1
    31    27    29    1
    32    28    35    1
    33    29    30    1
    34    29    31    1
    35    31    33    1
    36    31    32    1
    37    33    34    1
