@<TRIPOS>MOLECULE
ligand
 23 24 0 0 0
SMALL
GASTEIGER

@<TRIPOS>ATOM
      1 N          -3.3958    1.3452    0.5070 N.pl3   1  UNL1       -0.2383
      2 C          -2.6665    0.3356   -0.0764 C.cat   1  UNL1        0.4680
      3 N          -2.0614    0.4390   -1.2410 N.2     1  UNL1        0.0295
      4 C          -0.7849   -0.0665   -1.1447 C.2     1  UNL1        0.3527
      5 C          -0.5697   -1.0477   -0.2319 C.2     1  UNL1        0.2282
      6 C          -1.6955   -1.5867    0.4898 C.1     1  UNL1        0.2504
      7 O          -1.5177   -2.6473    0.9670 O.2     1  UNL1       -0.2031
      8 N          -2.6918   -0.9528    0.4911 N.2     1  UNL1        0.0157
      9 N           0.7082   -1.2665    0.2700 N.pl3   1  UNL1       -0.3209
     10 C           1.4810   -0.0092    0.4486 C.3     1  UNL1        0.0545
     11 H           0.9414    0.6125    1.1814 H       1  UNL1        0.0532
     12 C           1.5313    0.7667   -0.8931 C.3     1  UNL1        0.0962
     13 N           0.3571    0.4947   -1.7246 N.pl3   1  UNL1       -0.2295
     14 C           2.8732   -0.2819    1.0061 C.3     1  UNL1       -0.0432
     15 H          -3.9523    1.0529    1.3112 H       1  UNL1        0.2423
     16 H          -2.8149    2.1253    0.8222 H       1  UNL1        0.2423
     17 H           1.2196   -1.9269   -0.3162 H       1  UNL1        0.1474
     18 H           1.5840    1.8437   -0.6911 H       1  UNL1        0.0743
     19 H           2.4308    0.5047   -1.4599 H       1  UNL1        0.0743
     20 H           0.1257    1.2594   -2.3547 H       1  UNL1        0.2915
     21 H           3.5790    0.4995    0.6896 H       1  UNL1        0.0249
     22 H           2.8390   -0.2625    2.1030 H       1  UNL1        0.0249
     23 H           3.2752   -1.2503    0.6854 H       1  UNL1        0.0249
@<TRIPOS>BOND
     1     2     1    1
     2     3     2    2
     3     4     3    1
     4     5     4    2
     5     6     5    1
     6     7     6    2
     7     8     6    2
     8     8     2    1
     9     9     5    1
    10    10     9    1
    11    10    11    1
    12    12    10    1
    13    13    12    1
    14    13     4    1
    15    14    10    1
    16     1    15    1
    17     1    16    1
    18     9    17    1
    19    12    18    1
    20    12    19    1
    21    13    20    1
    22    14    21    1
    23    14    22    1
    24    14    23    1
