2O3V_N33_A_50
  1228              3D

 73 75  0  0  0  0  0  0  0  0999 V2000
    2.7440    0.6083   -0.7511 C   0  0  0  0  0  0  0  0  0  0  0  0
    3.6444    0.6183   -1.3671 H   0  0  0  0  0  0  0  0  0  0  0  0
    3.1665    1.0480    0.5476 O   0  0  0  0  0  0  0  0  0  0  0  0
    3.7849    0.0785    1.4075 C   0  0  0  0  0  0  0  0  0  0  0  0
    3.1642   -0.8205    1.4093 H   0  0  0  0  0  0  0  0  0  0  0  0
    3.7273    0.7188    2.8078 C   0  0  0  0  0  0  0  0  0  0  0  0
    2.8164    1.3299    2.8617 H   0  0  0  0  0  0  0  0  0  0  0  0
    4.8908    1.6581    3.1956 C   0  0  0  0  0  0  0  0  0  0  0  0
    6.0406    1.7048    2.1794 C   0  0  0  0  0  0  0  0  0  0  0  0
    5.7524    2.2947    1.3031 H   0  0  0  0  0  0  0  0  0  0  0  0
    7.2194    2.3119    2.7912 N   0  0  0  0  0  0  0  0  0  0  0  0
    6.3508    0.2738    1.7497 C   0  0  0  0  0  0  0  0  0  0  0  0
    6.5053   -0.3726    2.6251 H   0  0  0  0  0  0  0  0  0  0  0  0
    5.2009   -0.2754    0.8992 C   0  0  0  0  0  0  0  0  0  0  0  0
    5.3417    0.0777   -0.1263 H   0  0  0  0  0  0  0  0  0  0  0  0
    5.3243   -1.6998    0.8181 O   0  0  0  0  0  0  0  0  0  0  0  0
    7.5571    0.1967    0.9883 O   0  0  0  0  0  0  0  0  0  0  0  0
    3.5313   -0.3398    3.8053 N   0  0  0  0  0  0  0  0  0  0  0  0
    1.7925    1.7299   -1.3769 C   0  0  0  0  0  0  0  0  0  0  0  0
    1.8693    1.5905   -2.4694 H   0  0  0  0  0  0  0  0  0  0  0  0
    2.2286    3.0999   -1.0902 N   0  0  0  0  0  0  0  0  0  0  0  0
    0.2434    1.5960   -1.0158 C   0  0  0  0  0  0  0  0  0  0  0  0
    0.0596    2.0863   -0.0456 H   0  0  0  0  0  0  0  0  0  0  0  0
   -0.4760    2.4427   -1.9340 O   0  0  0  0  0  0  0  0  0  0  0  0
   -1.4715    1.8826   -2.7583 C   0  0  0  0  0  0  0  0  0  0  0  0
   -2.1397    2.8334   -3.5871 O   0  0  0  0  0  0  0  0  0  0  0  0
   -1.4722    3.5892   -4.6084 C   0  0  0  0  0  0  0  0  0  0  0  0
   -1.8006    4.6102   -4.3679 H   0  0  0  0  0  0  0  0  0  0  0  0
   -2.0685    3.2414   -5.9941 C   0  0  0  0  0  0  0  0  0  0  0  0
   -1.9226    2.1717   -6.2095 H   0  0  0  0  0  0  0  0  0  0  0  0
   -1.3691    4.0946   -7.0752 C   0  0  0  0  0  0  0  0  0  0  0  0
   -1.7893    3.8648   -8.0611 H   0  0  0  0  0  0  0  0  0  0  0  0
   -1.6333    5.4903   -6.8470 O   0  0  0  0  0  0  0  0  0  0  0  0
    0.0372    3.8697   -7.1614 O   0  0  0  0  0  0  0  0  0  0  0  0
    0.6788    3.2558   -6.0470 C   0  0  0  0  0  0  0  0  0  0  0  0
    1.6970    3.6651   -6.0811 H   0  0  0  0  0  0  0  0  0  0  0  0
    0.0752    3.6172   -4.6693 C   0  0  0  0  0  0  0  0  0  0  0  0
    0.5445    3.0042   -3.9056 H   0  0  0  0  0  0  0  0  0  0  0  0
    0.4711    4.9745   -4.4090 O   0  0  0  0  0  0  0  0  0  0  0  0
    0.7609    1.7482   -6.2796 C   0  0  0  0  0  0  0  0  0  0  0  0
    2.1325    1.3716   -6.3742 O   0  0  0  0  0  0  0  0  0  0  0  0
   -3.5114    3.5136   -6.0595 N   0  0  0  0  0  0  0  0  0  0  0  0
    0.0401    0.0293   -0.9199 C   0  0  0  0  0  0  0  0  0  0  0  0
    0.6605    0.4028   -0.0461 H   0  0  0  0  0  0  0  0  0  0  0  0
    0.4210   -0.2386   -2.3195 O   0  0  0  0  0  0  0  0  0  0  0  0
    0.9357   -1.1189   -0.3461 C   0  0  0  0  0  0  0  0  0  0  0  0
    0.9784   -1.1653    0.7619 H   0  0  0  0  0  0  0  0  0  0  0  0
    2.3068   -0.8088   -0.8308 O   0  0  0  0  0  0  0  0  0  0  0  0
    0.4960   -2.5403   -0.7395 C   0  0  0  0  0  0  0  0  0  0  0  0
    1.3276   -3.0919   -1.7559 O   0  0  0  0  0  0  0  0  0  0  0  0
    4.4978    2.6806    3.3108 H   0  0  0  0  0  0  0  0  0  0  0  0
    5.2792    1.3986    4.1886 H   0  0  0  0  0  0  0  0  0  0  0  0
    6.9337    2.9732    3.5150 H   0  0  0  0  0  0  0  0  0  0  0  0
    7.7149    2.8627    2.0923 H   0  0  0  0  0  0  0  0  0  0  0  0
    5.4170   -2.0339    1.7223 H   0  0  0  0  0  0  0  0  0  0  0  0
    7.5133    0.8785    0.2868 H   0  0  0  0  0  0  0  0  0  0  0  0
    4.4147   -0.6215    4.2081 H   0  0  0  0  0  0  0  0  0  0  0  0
    2.9498    0.0105    4.5663 H   0  0  0  0  0  0  0  0  0  0  0  0
    3.2466    3.1554   -1.0036 H   0  0  0  0  0  0  0  0  0  0  0  0
    1.9590    3.6711   -1.9000 H   0  0  0  0  0  0  0  0  0  0  0  0
   -1.0419    1.1124   -3.3903 H   0  0  0  0  0  0  0  0  0  0  0  0
   -2.2563    1.4007   -2.1539 H   0  0  0  0  0  0  0  0  0  0  0  0
   -0.9741    5.7798   -6.1921 H   0  0  0  0  0  0  0  0  0  0  0  0
    1.0454    4.9697   -3.6242 H   0  0  0  0  0  0  0  0  0  0  0  0
    0.3223    1.1884   -5.4490 H   0  0  0  0  0  0  0  0  0  0  0  0
    0.2643    1.4394   -7.2055 H   0  0  0  0  0  0  0  0  0  0  0  0
    2.1631    0.3999   -6.3396 H   0  0  0  0  0  0  0  0  0  0  0  0
   -3.8766    3.0967   -6.9170 H   0  0  0  0  0  0  0  0  0  0  0  0
   -3.9825    3.0394   -5.2898 H   0  0  0  0  0  0  0  0  0  0  0  0
    0.1202   -1.1192   -2.5839 H   0  0  0  0  0  0  0  0  0  0  0  0
   -0.5421   -2.5606   -1.0871 H   0  0  0  0  0  0  0  0  0  0  0  0
    0.5475   -3.2031    0.1255 H   0  0  0  0  0  0  0  0  0  0  0  0
    0.7596   -3.2690   -2.5304 H   0  0  0  0  0  0  0  0  0  0  0  0
  1  2  1  0  0  0  0
  3  1  1  0  0  0  0
  4  3  1  0  0  0  0
  4  5  1  0  0  0  0
  6  4  1  0  0  0  0
  6  7  1  0  0  0  0
  8  6  1  0  0  0  0
  9  8  1  0  0  0  0
  9 10  1  0  0  0  0
 11  9  1  0  0  0  0
 12  9  1  0  0  0  0
 12 13  1  0  0  0  0
 14 12  1  0  0  0  0
 14 15  1  0  0  0  0
 14  4  1  0  0  0  0
 16 14  1  0  0  0  0
 17 12  1  0  0  0  0
 18  6  1  0  0  0  0
 19  1  1  0  0  0  0
 19 20  1  0  0  0  0
 21 19  1  0  0  0  0
 22 19  1  0  0  0  0
 22 23  1  0  0  0  0
 24 22  1  0  0  0  0
 25 24  1  0  0  0  0
 26 25  1  0  0  0  0
 27 26  1  0  0  0  0
 27 28  1  0  0  0  0
 29 27  1  0  0  0  0
 29 30  1  0  0  0  0
 31 29  1  0  0  0  0
 31 32  1  0  0  0  0
 33 31  1  0  0  0  0
 34 31  1  0  0  0  0
 35 34  1  0  0  0  0
 35 36  1  0  0  0  0
 37 35  1  0  0  0  0
 37 38  1  0  0  0  0
 37 27  1  0  0  0  0
 39 37  1  0  0  0  0
 40 35  1  0  0  0  0
 41 40  1  0  0  0  0
 42 29  1  0  0  0  0
 43 22  1  0  0  0  0
 43 44  1  0  0  0  0
 45 43  1  0  0  0  0
 46 43  1  0  0  0  0
 46 47  1  0  0  0  0
 48 46  1  0  0  0  0
 48  1  1  0  0  0  0
 49 46  1  0  0  0  0
 50 49  1  0  0  0  0
  8 51  1  0  0  0  0
  8 52  1  0  0  0  0
 11 53  1  0  0  0  0
 11 54  1  0  0  0  0
 16 55  1  0  0  0  0
 17 56  1  0  0  0  0
 18 57  1  0  0  0  0
 18 58  1  0  0  0  0
 21 59  1  0  0  0  0
 21 60  1  0  0  0  0
 25 61  1  0  0  0  0
 25 62  1  0  0  0  0
 33 63  1  0  0  0  0
 39 64  1  0  0  0  0
 40 65  1  0  0  0  0
 40 66  1  0  0  0  0
 41 67  1  0  0  0  0
 42 68  1  0  0  0  0
 42 69  1  0  0  0  0
 45 70  1  0  0  0  0
 49 71  1  0  0  0  0
 49 72  1  0  0  0  0
 50 73  1  0  0  0  0
M  END
>  <energy>
263.76970690818166

$$$$
