@<TRIPOS>MOLECULE
2O3V_N33_A_50
 73 75 0 0 0
SMALL
GASTEIGER

@<TRIPOS>ATOM
      1 C           2.7440    0.6083   -0.7511 C.3     1  UNL1        0.1776
      2 H           3.6444    0.6183   -1.3671 H       1  UNL1        0.0927
      3 O           3.1665    1.0480    0.5476 O.3     1  UNL1       -0.3422
      4 C           3.7849    0.0785    1.4075 C.3     1  UNL1        0.1051
      5 H           3.1642   -0.8205    1.4093 H       1  UNL1        0.0639
      6 C           3.7273    0.7188    2.8078 C.3     1  UNL1        0.0355
      7 H           2.8164    1.3299    2.8617 H       1  UNL1        0.0485
      8 C           4.8908    1.6581    3.1956 C.3     1  UNL1       -0.0175
      9 C           6.0406    1.7048    2.1794 C.3     1  UNL1        0.0351
     10 H           5.7524    2.2947    1.3031 H       1  UNL1        0.0485
     11 N           7.2194    2.3119    2.7912 N.3     1  UNL1       -0.3250
     12 C           6.3508    0.2738    1.7497 C.3     1  UNL1        0.0986
     13 H           6.5053   -0.3726    2.6251 H       1  UNL1        0.0635
     14 C           5.2009   -0.2754    0.8992 C.3     1  UNL1        0.1101
     15 H           5.3417    0.0777   -0.1263 H       1  UNL1        0.0646
     16 O           5.3243   -1.6998    0.8181 O.3     1  UNL1       -0.3866
     17 O           7.5571    0.1967    0.9883 O.3     1  UNL1       -0.3876
     18 N           3.5313   -0.3398    3.8053 N.3     1  UNL1       -0.3250
     19 C           1.7925    1.7299   -1.3769 C.3     1  UNL1        0.0857
     20 H           1.8693    1.5905   -2.4694 H       1  UNL1        0.0535
     21 N           2.2286    3.0999   -1.0902 N.3     1  UNL1       -0.3211
     22 C           0.2434    1.5960   -1.0158 C.3     1  UNL1        0.1094
     23 H           0.0596    2.0863   -0.0456 H       1  UNL1        0.0641
     24 O          -0.4760    2.4427   -1.9340 O.3     1  UNL1       -0.3465
     25 C          -1.4715    1.8826   -2.7583 C.3     1  UNL1        0.1492
     26 O          -2.1397    2.8334   -3.5871 O.3     1  UNL1       -0.3465
     27 C          -1.4722    3.5892   -4.6084 C.3     1  UNL1        0.1094
     28 H          -1.8006    4.6102   -4.3679 H       1  UNL1        0.0641
     29 C          -2.0685    3.2414   -5.9941 C.3     1  UNL1        0.0855
     30 H          -1.9226    2.1717   -6.2095 H       1  UNL1        0.0535
     31 C          -1.3691    4.0946   -7.0752 C.3     1  UNL1        0.1744
     32 H          -1.7893    3.8648   -8.0611 H       1  UNL1        0.0925
     33 O          -1.6333    5.4903   -6.8470 O.3     1  UNL1       -0.3656
     34 O           0.0372    3.8697   -7.1614 O.3     1  UNL1       -0.3417
     35 C           0.6788    3.2558   -6.0470 C.3     1  UNL1        0.1129
     36 H           1.6970    3.6651   -6.0811 H       1  UNL1        0.0647
     37 C           0.0752    3.6172   -4.6693 C.3     1  UNL1        0.1113
     38 H           0.5445    3.0042   -3.9056 H       1  UNL1        0.0646
     39 O           0.4711    4.9745   -4.4090 O.3     1  UNL1       -0.3865
     40 C           0.7609    1.7482   -6.2796 C.3     1  UNL1        0.0730
     41 O           2.1325    1.3716   -6.3742 O.3     1  UNL1       -0.3924
     42 N          -3.5114    3.5136   -6.0595 N.3     1  UNL1       -0.3211
     43 C           0.0401    0.0293   -0.9199 C.3     1  UNL1        0.1113
     44 H           0.6605    0.4028   -0.0461 H       1  UNL1        0.0646
     45 O           0.4210   -0.2386   -2.3195 O.3     1  UNL1       -0.3865
     46 C           0.9357   -1.1189   -0.3461 C.3     1  UNL1        0.1129
     47 H           0.9784   -1.1653    0.7619 H       1  UNL1        0.0647
     48 O           2.3068   -0.8088   -0.8308 O.3     1  UNL1       -0.3415
     49 C           0.4960   -2.5403   -0.7395 C.3     1  UNL1        0.0730
     50 O           1.3276   -3.0919   -1.7559 O.3     1  UNL1       -0.3924
     51 H           4.4978    2.6806    3.3108 H       1  UNL1        0.0297
     52 H           5.2792    1.3986    4.1886 H       1  UNL1        0.0297
     53 H           6.9337    2.9732    3.5150 H       1  UNL1        0.1185
     54 H           7.7149    2.8627    2.0923 H       1  UNL1        0.1185
     55 H           5.4170   -2.0339    1.7223 H       1  UNL1        0.2100
     56 H           7.5133    0.8785    0.2868 H       1  UNL1        0.2100
     57 H           4.4147   -0.6215    4.2081 H       1  UNL1        0.1185
     58 H           2.9498    0.0105    4.5663 H       1  UNL1        0.1185
     59 H           3.2466    3.1554   -1.0036 H       1  UNL1        0.1187
     60 H           1.9590    3.6711   -1.9000 H       1  UNL1        0.1187
     61 H          -1.0419    1.1124   -3.3903 H       1  UNL1        0.0871
     62 H          -2.2563    1.4007   -2.1539 H       1  UNL1        0.0871
     63 H          -0.9741    5.7798   -6.1921 H       1  UNL1        0.2125
     64 H           1.0454    4.9697   -3.6242 H       1  UNL1        0.2100
     65 H           0.3223    1.1884   -5.4490 H       1  UNL1        0.0584
     66 H           0.2643    1.4394   -7.2055 H       1  UNL1        0.0584
     67 H           2.1631    0.3999   -6.3396 H       1  UNL1        0.2095
     68 H          -3.8766    3.0967   -6.9170 H       1  UNL1        0.1187
     69 H          -3.9825    3.0394   -5.2898 H       1  UNL1        0.1187
     70 H           0.1202   -1.1192   -2.5839 H       1  UNL1        0.2100
     71 H          -0.5421   -2.5606   -1.0871 H       1  UNL1        0.0584
     72 H           0.5475   -3.2031    0.1255 H       1  UNL1        0.0584
     73 H           0.7596   -3.2690   -2.5304 H       1  UNL1        0.2095
@<TRIPOS>BOND
     1     1     2    1
     2     3     1    1
     3     4     3    1
     4     4     5    1
     5     6     4    1
     6     6     7    1
     7     8     6    1
     8     9     8    1
     9     9    10    1
    10    11     9    1
    11    12     9    1
    12    12    13    1
    13    14    12    1
    14    14    15    1
    15    14     4    1
    16    16    14    1
    17    17    12    1
    18    18     6    1
    19    19     1    1
    20    19    20    1
    21    21    19    1
    22    22    19    1
    23    22    23    1
    24    24    22    1
    25    25    24    1
    26    26    25    1
    27    27    26    1
    28    27    28    1
    29    29    27    1
    30    29    30    1
    31    31    29    1
    32    31    32    1
    33    33    31    1
    34    34    31    1
    35    35    34    1
    36    35    36    1
    37    37    35    1
    38    37    38    1
    39    37    27    1
    40    39    37    1
    41    40    35    1
    42    41    40    1
    43    42    29    1
    44    43    22    1
    45    43    44    1
    46    45    43    1
    47    46    43    1
    48    46    47    1
    49    48    46    1
    50    48     1    1
    51    49    46    1
    52    50    49    1
    53     8    51    1
    54     8    52    1
    55    11    53    1
    56    11    54    1
    57    16    55    1
    58    17    56    1
    59    18    57    1
    60    18    58    1
    61    21    59    1
    62    21    60    1
    63    25    61    1
    64    25    62    1
    65    33    63    1
    66    39    64    1
    67    40    65    1
    68    40    66    1
    69    41    67    1
    70    42    68    1
    71    42    69    1
    72    45    70    1
    73    49    71    1
    74    49    72    1
    75    50    73    1
