@<TRIPOS>MOLECULE
1Q8N_MGR_A_39
 25 27 0 0 0
SMALL
GASTEIGER
****
Coordinates from PDB:1Q8N:A:39 Model:1 without hydrogens
@<TRIPOS>ATOM
      1 C           0.6270    1.1660   -2.0070 C.2     1  UNL1        0.0000
      2 C           0.6610    2.2560   -3.2220 C.ar    1  UNL1        0.0000
      3 C          -0.1790    2.2180   -4.2840 C.ar    1  UNL1        0.0000
      4 C          -0.1110    3.2240   -5.3690 C.ar    1  UNL1        0.0000
      5 C           0.8090    4.2140   -5.3100 C.ar    1  UNL1        0.0000
      6 C           1.7100    4.2770   -4.1830 C.ar    1  UNL1        0.0000
      7 C           1.6400    3.3630   -3.2120 C.ar    1  UNL1        0.0000
      8 C           0.0030    1.6260   -0.5720 C.ar    1  UNL1        0.0001
      9 C           0.3870    1.0360    0.5790 C.ar    1  UNL1        0.0013
     10 C          -0.1720    1.4430    1.8980 C.ar    1  UNL1        0.0145
     11 C          -1.0960    2.4380    1.9720 C.ar    1  UNL1        0.0479
     12 C          -1.5240    3.0940    0.7220 C.ar    1  UNL1        0.0145
     13 C          -1.0120    2.7140   -0.4570 C.ar    1  UNL1        0.0013
     14 C           1.2070   -0.3750   -2.2010 C.2     1  UNL1        0.0004
     15 C           0.6620   -1.4910   -1.3530 C.2     1  UNL1        0.0061
     16 C           1.0790   -2.7550   -1.4660 C.2     1  UNL1        0.0688
     17 C           2.1110   -3.1240   -2.4420 C.2     1  UNL1        0.2218
     18 C           2.6380   -2.1590   -3.2240 C.2     1  UNL1        0.0688
     19 C           2.1760   -0.7350   -3.1070 C.2     1  UNL1        0.0061
     20 C          -1.2850    2.2630    4.4670 C.3     1  UNL1        0.1122
     21 C          -2.6230    3.9150    3.2550 C.3     1  UNL1        0.1122
     22 C           1.9690   -5.5040   -1.7310 C.3     1  UNL1        0.4026
     23 C           3.5560   -4.8690   -3.5190 C.3     1  UNL1        0.4026
     24 N          -1.6570    2.8610    3.2210 N.pl3   1  UNL1       -0.3041
     25 N           2.5430   -4.4850   -2.5620 N.2     1  UNL1       -0.1771
@<TRIPOS>BOND
     1     1     2    1
     2     1     8    1
     3     1    14    2
     4     2     3   ar
     5     2     7   ar
     6     3     4   ar
     7     4     5   ar
     8     5     6   ar
     9     6     7   ar
    10     8     9   ar
    11     8    13   ar
    12     9    10   ar
    13    10    11   ar
    14    11    12   ar
    15    11    24    1
    16    12    13   ar
    17    14    15    1
    18    14    19    1
    19    15    16    2
    20    16    17    1
    21    17    18    1
    22    17    25    2
    23    18    19    2
    24    20    24    1
    25    21    24    1
    26    22    25    1
    27    23    25    1
