1Q8N_MGR_A_39
 OpenBabel10091713573D
Coordinates from PDB:1Q8N:A:39 Model:1 without hydrogens
 25 27  0  0  0  0  0  0  0  0999 V2000
    0.6270    1.1660   -2.0070 C   0  0  0  0  0  0  0  0  0  0  0  0
    0.6610    2.2560   -3.2220 C   0  0  0  0  0  0  0  0  0  0  0  0
   -0.1790    2.2180   -4.2840 C   0  0  0  0  0  0  0  0  0  0  0  0
   -0.1110    3.2240   -5.3690 C   0  0  0  0  0  0  0  0  0  0  0  0
    0.8090    4.2140   -5.3100 C   0  0  0  0  0  0  0  0  0  0  0  0
    1.7100    4.2770   -4.1830 C   0  0  0  0  0  0  0  0  0  0  0  0
    1.6400    3.3630   -3.2120 C   0  0  0  0  0  0  0  0  0  0  0  0
    0.0030    1.6260   -0.5720 C   0  0  0  0  0  0  0  0  0  0  0  0
    0.3870    1.0360    0.5790 C   0  0  0  0  0  0  0  0  0  0  0  0
   -0.1720    1.4430    1.8980 C   0  0  0  0  0  0  0  0  0  0  0  0
   -1.0960    2.4380    1.9720 C   0  0  0  0  0  0  0  0  0  0  0  0
   -1.5240    3.0940    0.7220 C   0  0  0  0  0  0  0  0  0  0  0  0
   -1.0120    2.7140   -0.4570 C   0  0  0  0  0  0  0  0  0  0  0  0
    1.2070   -0.3750   -2.2010 C   0  0  0  0  0  0  0  0  0  0  0  0
    0.6620   -1.4910   -1.3530 C   0  0  0  0  0  0  0  0  0  0  0  0
    1.0790   -2.7550   -1.4660 C   0  0  0  0  0  0  0  0  0  0  0  0
    2.1110   -3.1240   -2.4420 C   0  0  0  0  0  0  0  0  0  0  0  0
    2.6380   -2.1590   -3.2240 C   0  0  0  0  0  0  0  0  0  0  0  0
    2.1760   -0.7350   -3.1070 C   0  0  0  0  0  0  0  0  0  0  0  0
   -1.2850    2.2630    4.4670 C   0  0  0  0  0  0  0  0  0  0  0  0
   -2.6230    3.9150    3.2550 C   0  0  0  0  0  0  0  0  0  0  0  0
    1.9690   -5.5040   -1.7310 C   0  0  0  0  0  0  0  0  0  0  0  0
    3.5560   -4.8690   -3.5190 C   0  0  0  0  0  0  0  0  0  0  0  0
   -1.6570    2.8610    3.2210 N   0  0  0  0  0  0  0  0  0  0  0  0
    2.5430   -4.4850   -2.5620 N   0  3  0  0  0  0  0  0  0  0  0  0
  1  2  1  0  0  0  0
  1  8  1  0  0  0  0
  1 14  2  0  0  0  0
  2  3  2  0  0  0  0
  2  7  1  0  0  0  0
  3  4  1  0  0  0  0
  4  5  2  0  0  0  0
  5  6  1  0  0  0  0
  6  7  2  0  0  0  0
  8  9  2  0  0  0  0
  8 13  1  0  0  0  0
  9 10  1  0  0  0  0
 10 11  2  0  0  0  0
 11 12  1  0  0  0  0
 11 24  1  0  0  0  0
 12 13  2  0  0  0  0
 14 15  1  0  0  0  0
 14 19  1  0  0  0  0
 15 16  2  0  0  0  0
 16 17  1  0  0  0  0
 17 18  1  0  0  0  0
 17 25  2  0  0  0  0
 18 19  2  0  0  0  0
 20 24  1  0  0  0  0
 21 24  1  0  0  0  0
 22 25  1  0  0  0  0
 23 25  1  0  0  0  0
A    1
C1
A    2
C2
A    3
C3
A    4
C4
A    5
C5
A    6
C6
A    7
C7
A    8
C8
A    9
C9
A   10
C10
A   11
C11
A   12
C12
A   13
C13
A   14
C14
A   15
C15
A   16
C16
A   17
C17
A   18
C18
A   19
C19
A   20
C22
A   21
C23
A   22
C24
A   23
C25
A   24
N2
A   25
N3
M  CHG  1  25   1
M  END
>  <InstanceId>
1Q8N_MGR_A_39

>  <ChemCompId>
MGR

>  <PdbId>
1Q8N

>  <ChainId>
A

>  <ResidueNumber>
39

>  <InsertionCode>


>  <Model>
1

>  <AltIds>


>  <MissingHeavyAtoms>
0

>  <ObservedFormula>
C23 N2

>  <Name>
MALACHITE GREEN

>  <SystematicName>
[4-[(4-dimethylaminophenyl)-phenyl-methylidene]-1-cyclohexa-2,5-dienylidene]-dimethyl-azanium

>  <Synonyms>


>  <Type>
NON-POLYMER

>  <Formula>
C23 H25 N2

>  <MolecularWeight>
329.458

>  <ModifiedDate>
2011-06-04

>  <Parent>


>  <OneLetterCode>


>  <SubcomponentList>


>  <AmbiguousFlag>
N

>  <InChI>
InChI=1S/C23H25N2/c1-24(2)21-14-10-19(11-15-21)23(18-8-6-5-7-9-18)20-12-16-22(17-13-20)25(3)4/h5-17H,1-4H3/q+1

>  <InChIKey>
VFCNQNZNPKRXIT-UHFFFAOYSA-N

>  <SMILES>
CN(C)c1ccc(cc1)C(=C2C=CC(=[N+](C)C)C=C2)c3ccccc3

$$$$
