REMARK  5 active torsions:
REMARK  status: ('A' for Active; 'I' for Inactive)
REMARK    1  A    between atoms: C_1  and  C_2 
REMARK    2  A    between atoms: C_1  and  C_8 
REMARK    3  A    between atoms: C_1  and  C_14 
REMARK    4  A    between atoms: C_11  and  N_24 
REMARK    5  A    between atoms: C_17  and  N_25 
ROOT
ATOM      1  C   UNL d   1       0.627   1.166  -2.007  0.00  0.00     0.000 C 
ENDROOT
BRANCH   1   2
ATOM      2  C   UNL d   1       0.661   2.256  -3.222  0.00  0.00     0.000 A 
ATOM      3  C   UNL d   1      -0.179   2.218  -4.284  0.00  0.00     0.000 A 
ATOM      4  C   UNL d   1      -0.111   3.224  -5.369  0.00  0.00     0.000 A 
ATOM      5  C   UNL d   1       0.809   4.214  -5.310  0.00  0.00     0.000 A 
ATOM      6  C   UNL d   1       1.710   4.277  -4.183  0.00  0.00     0.000 A 
ATOM      7  C   UNL d   1       1.640   3.363  -3.212  0.00  0.00     0.000 A 
ENDBRANCH   1   2
BRANCH   1   8
ATOM      8  C   UNL d   1       0.003   1.626  -0.572  0.00  0.00     0.000 A 
ATOM      9  C   UNL d   1       0.387   1.036   0.579  0.00  0.00     0.002 A 
ATOM     10  C   UNL d   1      -0.172   1.443   1.898  0.00  0.00     0.017 A 
ATOM     11  C   UNL d   1      -1.096   2.438   1.972  0.00  0.00     0.056 A 
ATOM     12  C   UNL d   1      -1.524   3.094   0.722  0.00  0.00     0.017 A 
ATOM     13  C   UNL d   1      -1.012   2.714  -0.457  0.00  0.00     0.002 A 
BRANCH  11  14
ATOM     14  N   UNL d   1      -1.657   2.861   3.221  0.00  0.00    -0.344 N 
ATOM     15  C   UNL d   1      -1.285   2.263   4.467  0.00  0.00     0.126 C 
ATOM     16  C   UNL d   1      -2.623   3.915   3.255  0.00  0.00     0.126 C 
ENDBRANCH  11  14
ENDBRANCH   1   8
BRANCH   1  17
ATOM     17  C   UNL d   1       1.207  -0.375  -2.201  0.00  0.00     0.000 A 
ATOM     18  C   UNL d   1       0.662  -1.491  -1.353  0.00  0.00     0.002 A 
ATOM     19  C   UNL d   1       1.079  -2.755  -1.466  0.00  0.00     0.017 A 
ATOM     20  C   UNL d   1       2.111  -3.124  -2.442  0.00  0.00     0.056 A 
ATOM     21  C   UNL d   1       2.638  -2.159  -3.224  0.00  0.00     0.017 A 
ATOM     22  C   UNL d   1       2.176  -0.735  -3.107  0.00  0.00     0.002 A 
BRANCH  20  23
ATOM     23  N   UNL d   1       2.543  -4.485  -2.562  0.00  0.00    -0.344 N 
ATOM     24  C   UNL d   1       1.969  -5.504  -1.731  0.00  0.00     0.126 C 
ATOM     25  C   UNL d   1       3.556  -4.869  -3.519  0.00  0.00     0.126 C 
ENDBRANCH  20  23
ENDBRANCH   1  17
TORSDOF 5
