@<TRIPOS>MOLECULE
ligand.pdb
 42 42 0 0 0
SMALL
GASTEIGER

@<TRIPOS>ATOM
      1 C           1.6763   -2.2434    1.1712 C.2     0  UNK0        0.2552
      2 O           0.5722   -2.6976    1.4516 O.2     0  UNK0       -0.2723
      3 N           2.8084   -2.4512    1.9422 N.am    0  UNK0       -0.0938
      4 C           3.8352   -2.4705    1.3639 C.1     0  UNK0        0.2279
      5 O           4.5731   -3.3818    1.2800 O.2     0  UNK0       -0.2067
      6 N           4.2171   -1.3327    0.7398 N.am    0  UNK0       -0.1395
      7 C           3.3020   -0.7085    0.0609 C.2     0  UNK0        0.0301
      8 C           3.6374    0.5510   -0.6860 C.3     0  UNK0       -0.0269
      9 C           1.8722   -1.2374    0.0282 C.3     0  UNK0        0.0752
     10 H           1.2323   -0.3831    0.2855 H       0  UNK0        0.0454
     11 C           1.5088   -1.7194   -1.3908 C.3     0  UNK0       -0.0285
     12 C           1.2869   -3.2170   -1.6150 C.3     0  UNK0        0.0250
     13 C          -0.0780   -3.7477   -1.1987 C.2     0  UNK0        0.2134
     14 O          -0.1853   -4.7637   -0.5132 O.2     0  UNK0       -0.2758
     15 N          -1.1376   -3.0262   -1.7204 N.am    1  UNK1       -0.3095
     16 C          -2.5147   -3.1754   -1.2551 C.3     1  UNK1        0.0551
     17 H          -2.5707   -4.1546   -0.7647 H       1  UNK1        0.0529
     18 C          -3.4705   -3.2562   -2.4500 C.3     1  UNK1        0.0633
     19 O          -3.3283   -2.1222   -3.2922 O.3     1  UNK1       -0.3932
     20 C          -2.9599   -2.1282   -0.2131 C.3     1  UNK1        0.0150
     21 S          -1.9761   -0.5941   -0.1095 S.3     1  UNK1       -0.1481
     22 C          -2.9771    0.5065   -1.1434 C.3     1  UNK1        0.0396
     23 S          -2.4259    2.2268   -0.9479 S.3     1  UNK1       -0.1534
     24 C          -3.5630    3.0135   -2.1131 C.3     1  UNK1       -0.0173
     25 H           4.0732    0.2863   -1.6528 H       0  UNK0        0.0288
     26 H           4.3489    1.1521   -0.1131 H       0  UNK0        0.0288
     27 H           2.7348    1.1435   -0.8571 H       0  UNK0        0.0288
     28 H           2.2945   -1.4142   -2.0938 H       0  UNK0        0.0281
     29 H           0.6344   -1.1559   -1.7299 H       0  UNK0        0.0281
     30 H           1.4042   -3.4455   -2.6829 H       0  UNK0        0.0359
     31 H           2.0580   -3.7930   -1.0912 H       0  UNK0        0.0359
     32 H          -0.9947   -2.5229   -2.5911 H       1  UNK1        0.1491
     33 H          -4.5124   -3.3063   -2.1206 H       1  UNK1        0.0576
     34 H          -3.2704   -4.1623   -3.0347 H       1  UNK1        0.0576
     35 H          -3.2363   -2.4461   -4.2041 H       1  UNK1        0.2095
     36 H          -4.0145   -1.8645   -0.3493 H       1  UNK1        0.0395
     37 H          -2.8968   -2.5870    0.7809 H       1  UNK1        0.0395
     38 H          -4.0286    0.4342   -0.8526 H       1  UNK1        0.0489
     39 H          -2.8740    0.2180   -2.1929 H       1  UNK1        0.0489
     40 H          -4.5955    2.7356   -1.8874 H       1  UNK1        0.0341
     41 H          -3.4692    4.0998   -2.0354 H       1  UNK1        0.0341
     42 H          -3.3245    2.7126   -3.1364 H       1  UNK1        0.0341
@<TRIPOS>BOND
     1     2     1    2
     2     3     1    1
     3     4     3    2
     4     5     4    2
     5     6     4    1
     6     7     6    2
     7     8     7    1
     8     9     7    1
     9     9    10    1
    10     9     1    1
    11    11     9    1
    12    12    11    1
    13    13    12    1
    14    14    13    2
    15    15    13   am
    16    16    15    1
    17    16    17    1
    18    18    16    1
    19    19    18    1
    20    20    16    1
    21    21    20    1
    22    22    21    1
    23    23    22    1
    24    24    23    1
    25     8    25    1
    26     8    26    1
    27     8    27    1
    28    11    28    1
    29    11    29    1
    30    12    30    1
    31    12    31    1
    32    15    32    1
    33    18    33    1
    34    18    34    1
    35    19    35    1
    36    20    36    1
    37    20    37    1
    38    22    38    1
    39    22    39    1
    40    24    40    1
    41    24    41    1
    42    24    42    1
