REMARK  10 active torsions:
REMARK  status: ('A' for Active; 'I' for Inactive)
REMARK    1  A    between atoms: C_10  and  C_9 
REMARK    2  A    between atoms: C_11  and  C_10 
REMARK    3  A    between atoms: C_12  and  C_11 
REMARK       I    between atoms: N_14  and  C_12 
REMARK    4  A    between atoms: C_15  and  N_14 
REMARK    5  A    between atoms: C_16  and  C_15 
REMARK    6  A    between atoms: C_18  and  C_15 
REMARK    7  A    between atoms: O_17  and  C_16 
REMARK    8  A    between atoms: S_19  and  C_18 
REMARK    9  A    between atoms: C_20  and  S_19 
REMARK   10  A    between atoms: S_21  and  C_20 
ROOT
ATOM      1  C   UNK d   0      -0.078  -3.748  -1.199  0.00  0.00     0.218 C 
ATOM      2  O   UNK d   0      -0.185  -4.764  -0.513  0.00  0.00    -0.274 OA
ATOM      3  N   UNK d   1      -1.138  -3.026  -1.720  0.00  0.00    -0.354 N 
ATOM      4  H   UNK d   1      -0.995  -2.523  -2.591  0.00  0.00     0.163 HD
ENDROOT
BRANCH   1   5
ATOM      5  C   UNK d   0       1.287  -3.217  -1.615  0.00  0.00     0.104 C 
BRANCH   5   6
ATOM      6  C   UNK d   0       1.509  -1.719  -1.391  0.00  0.00     0.029 C 
BRANCH   6   7
ATOM      7  C   UNK d   0       1.872  -1.237   0.028  0.00  0.00     0.128 C 
ATOM      8  C   UNK d   0       3.302  -0.709   0.061  0.00  0.00     0.027 C 
ATOM      9  N   UNK d   0       4.217  -1.333   0.740  0.00  0.00    -0.201 NA
ATOM     10  C   UNK d   0       3.637   0.551  -0.686  0.00  0.00     0.066 C 
ATOM     11  C   UNK d   0       3.835  -2.470   1.364  0.00  0.00     0.370 C 
ATOM     12  N   UNK d   0       2.808  -2.451   1.942  0.00  0.00    -0.156 NA
ATOM     13  O   UNK d   0       4.573  -3.382   1.280  0.00  0.00    -0.242 OA
ATOM     14  C   UNK d   0       1.676  -2.243   1.171  0.00  0.00     0.257 C 
ATOM     15  O   UNK d   0       0.572  -2.698   1.452  0.00  0.00    -0.270 OA
ENDBRANCH   6   7
ENDBRANCH   5   6
ENDBRANCH   1   5
BRANCH   3  16
ATOM     16  C   UNK d   1      -2.515  -3.175  -1.255  0.00  0.00     0.117 C 
BRANCH  16  17
ATOM     17  C   UNK d   1      -3.470  -3.256  -2.450  0.00  0.00     0.190 C 
BRANCH  17  18
ATOM     18  O   UNK d   1      -3.328  -2.122  -3.292  0.00  0.00    -0.399 OA
ATOM     19  H   UNK d   1      -3.236  -2.446  -4.204  0.00  0.00     0.209 HD
ENDBRANCH  17  18
ENDBRANCH  16  17
BRANCH  16  20
ATOM     20  C   UNK d   1      -2.960  -2.128  -0.213  0.00  0.00     0.102 C 
BRANCH  20  21
ATOM     21  S   UNK d   1      -1.976  -0.594  -0.110  0.00  0.00    -0.157 SA
BRANCH  21  22
ATOM     22  C   UNK d   1      -2.977   0.506  -1.143  0.00  0.00     0.147 C 
BRANCH  22  23
ATOM     23  S   UNK d   1      -2.426   2.227  -0.948  0.00  0.00    -0.163 SA
ATOM     24  C   UNK d   1      -3.563   3.014  -2.113  0.00  0.00     0.090 C 
ENDBRANCH  22  23
ENDBRANCH  21  22
ENDBRANCH  20  21
ENDBRANCH  16  20
ENDBRANCH   3  16
TORSDOF 10
