@<TRIPOS>MOLECULE
ligands/ligand.pdb
 70 72 0 0 0
SMALL
GASTEIGER

@<TRIPOS>ATOM
      1 C          -8.3743    1.6841    6.1048 C.3     1  UNL1        0.0740
      2 H          -8.5754    1.9707    5.0660 H       1  UNL1        0.0609
      3 O          -6.9598    1.7690    6.3445 O.3     1  UNL1       -0.3453
      4 C          -6.1920    1.1529    5.2850 C.3     1  UNL1        0.1750
      5 H          -5.2217    0.8563    5.7009 H       1  UNL1        0.0926
      6 O          -5.9872    2.1133    4.2618 O.3     1  UNL1       -0.3423
      7 C          -4.6953    2.7453    4.1303 C.3     1  UNL1        0.1051
      8 H          -4.1215    2.1378    3.4128 H       1  UNL1        0.0639
      9 C          -3.8574    3.0089    5.4033 C.3     1  UNL1        0.0355
     10 H          -4.0390    2.2459    6.1547 H       1  UNL1        0.0485
     11 C          -4.1979    4.3546    6.0784 C.3     1  UNL1       -0.0175
     12 C          -5.7219    4.6440    5.9664 C.3     1  UNL1        0.0355
     13 H          -6.4460    5.4634    5.9757 H       1  UNL1        0.0485
     14 N          -5.8375    5.2377    7.3404 N.3     1  UNL1       -0.3250
     15 C          -5.7962    5.0536    4.3773 C.3     1  UNL1        0.1051
     16 H          -5.3737    6.0659    4.2946 H       1  UNL1        0.0639
     17 C          -4.9912    4.1136    3.4412 C.3     1  UNL1        0.1104
     18 H          -5.4694    3.9550    2.4839 H       1  UNL1        0.0646
     19 O          -3.7478    4.7406    3.1073 O.3     1  UNL1       -0.3865
     20 O          -7.2009    5.2365    4.0371 O.3     1  UNL1       -0.3413
     21 C          -7.8436    4.4874    2.9983 C.3     1  UNL1        0.1870
     22 H          -7.3689    3.5132    2.8812 H       1  UNL1        0.0937
     23 C          -7.8160    5.2873    1.6918 C.3     1  UNL1        0.1239
     24 H          -6.7902    5.5826    1.4357 H       1  UNL1        0.0661
     25 C          -8.4840    4.5157    0.5194 C.3     1  UNL1        0.0692
     26 H          -9.1430    5.2405    0.0226 H       1  UNL1        0.0517
     27 C          -9.4221    3.3786    1.0270 C.3     1  UNL1        0.1043
     28 C         -10.1070    3.8748    2.3139 C.3     1  UNL1        0.0808
     29 O          -9.1979    4.1927    3.3775 O.3     1  UNL1       -0.3459
     30 O          -8.7125    2.1735    1.3445 O.3     1  UNL1       -0.3849
     31 C         -10.4667    3.0146   -0.0360 C.3     1  UNL1       -0.0323
     32 N          -7.5683    4.1112   -0.5488 N.3     1  UNL1       -0.3115
     33 C          -6.3980    3.3313   -0.2067 C.3     1  UNL1       -0.0154
     34 O          -8.5347    6.5159    1.8991 O.3     1  UNL1       -0.3851
     35 N          -2.4268    2.9286    5.0992 N.3     1  UNL1       -0.3250
     36 C          -6.7712   -0.2064    4.7495 C.3     1  UNL1        0.0566
     37 H          -6.1835   -0.9911    5.2473 H       1  UNL1        0.0508
     38 N          -6.6035   -0.3771    3.3019 N.3     1  UNL1       -0.3232
     39 C          -8.2279   -0.5172    5.1086 C.3     1  UNL1       -0.0307
     40 C          -8.6903    0.2153    6.3442 C.3     1  UNL1       -0.0237
     41 C          -9.2016    2.5857    7.0305 C.3     1  UNL1        0.0196
     42 N          -9.1646    4.0027    6.6572 N.3     1  UNL1       -0.3277
     43 H          -3.5941    5.1811    5.6757 H       1  UNL1        0.0297
     44 H          -3.8320    4.2398    7.1150 H       1  UNL1        0.0297
     45 H          -5.8580    4.4931    8.0535 H       1  UNL1        0.1185
     46 H          -5.0807    5.8694    7.5663 H       1  UNL1        0.1185
     47 H          -3.9475    5.4836    2.5076 H       1  UNL1        0.2100
     48 H         -10.6905    4.7786    2.1082 H       1  UNL1        0.0590
     49 H         -10.8146    3.1259    2.6927 H       1  UNL1        0.0590
     50 H          -9.3413    1.5625    1.7542 H       1  UNL1        0.2103
     51 H         -11.0603    3.8835   -0.3284 H       1  UNL1        0.0258
     52 H         -11.1481    2.2448    0.3384 H       1  UNL1        0.0258
     53 H          -9.9783    2.6124   -0.9349 H       1  UNL1        0.0258
     54 H          -7.3007    4.9264   -1.1043 H       1  UNL1        0.1221
     55 H          -6.4195    2.8664    0.7828 H       1  UNL1        0.0388
     56 H          -5.4849    3.9328   -0.2841 H       1  UNL1        0.0388
     57 H          -6.3170    2.5189   -0.9371 H       1  UNL1        0.0388
     58 H          -8.1613    7.1813    1.3032 H       1  UNL1        0.2101
     59 H          -2.1209    1.9569    5.2218 H       1  UNL1        0.1185
     60 H          -1.8886    3.4674    5.7756 H       1  UNL1        0.1185
     61 H          -6.5540   -1.3661    3.0786 H       1  UNL1        0.1186
     62 H          -5.7246    0.0384    2.9797 H       1  UNL1        0.1186
     63 H          -8.8956   -0.2716    4.2835 H       1  UNL1        0.0283
     64 H          -8.3229   -1.5882    5.2937 H       1  UNL1        0.0283
     65 H          -8.1662   -0.1550    7.2372 H       1  UNL1        0.0291
     66 H          -9.7589    0.0327    6.5062 H       1  UNL1        0.0291
     67 H          -8.8904    2.4755    8.0761 H       1  UNL1        0.0447
     68 H         -10.2532    2.2778    6.9714 H       1  UNL1        0.0447
     69 H          -9.8356    4.5128    7.2444 H       1  UNL1        0.1183
     70 H          -9.5040    4.1233    5.7026 H       1  UNL1        0.1183
@<TRIPOS>BOND
     1     1     2    1
     2     1     3    1
     3     1    40    1
     4     1    41    1
     5     3     4    1
     6     4     5    1
     7     4     6    1
     8     4    36    1
     9     7    17    1
    10     7     8    1
    11     7     6    1
    12     9     7    1
    13     9    10    1
    14     9    11    1
    15     9    35    1
    16    11    12    1
    17    11    43    1
    18    11    44    1
    19    12    15    1
    20    12    14    1
    21    12    13    1
    22    14    45    1
    23    14    46    1
    24    15    16    1
    25    15    17    1
    26    15    20    1
    27    17    19    1
    28    17    18    1
    29    19    47    1
    30    21    23    1
    31    21    29    1
    32    21    22    1
    33    21    20    1
    34    23    25    1
    35    23    34    1
    36    23    24    1
    37    25    27    1
    38    25    32    1
    39    25    26    1
    40    27    28    1
    41    27    30    1
    42    27    31    1
    43    28    29    1
    44    28    48    1
    45    28    49    1
    46    30    50    1
    47    31    51    1
    48    31    52    1
    49    31    53    1
    50    32    33    1
    51    32    54    1
    52    33    55    1
    53    33    56    1
    54    33    57    1
    55    34    58    1
    56    35    59    1
    57    35    60    1
    58    36    37    1
    59    36    38    1
    60    36    39    1
    61    38    61    1
    62    38    62    1
    63    39    40    1
    64    39    63    1
    65    39    64    1
    66    40    65    1
    67    40    66    1
    68    41    42    1
    69    41    67    1
    70    41    68    1
    71    42    69    1
    72    42    70    1
