@<TRIPOS>MOLECULE
3TZR_SS0_A_75
 24 26 0 0 0
SMALL
GASTEIGER
****
Coordinates from PDB:3TZR:A:75 Model:1 without hydrogens
@<TRIPOS>ATOM
      1 C           8.0840  -11.5930   -9.3260 C.3     1  UNL1        0.0897
      2 N           6.7700  -11.0900   -9.6930 N.3     1  UNL1       -0.2703
      3 O          13.2060   -7.1620  -12.5660 O.3     1  UNL1       -0.4757
      4 C          12.0030   -6.4920  -12.3880 C.ar    1  UNL1        0.1360
      5 N           8.2080   -4.5910  -11.8950 N.ar    1  UNL1       -0.2111
      6 C          11.9460   -4.9890  -12.3200 C.ar    1  UNL1        0.0382
      7 N           8.1990   -6.8360  -11.9690 N.ar    1  UNL1       -0.2973
      8 C          10.7150   -4.2730  -12.1650 C.ar    1  UNL1        0.0238
      9 N           5.9860   -5.6990  -11.6750 N.pl3   1  UNL1       -0.0878
     10 C           9.5170   -5.0650  -12.0600 C.ar    1  UNL1        0.0999
     11 N          13.2900  -11.4680  -11.8110 N.3     1  UNL1       -0.2702
     12 C           9.5590   -6.5020  -12.1080 C.ar    1  UNL1        0.0788
     13 C          10.8600   -7.2040  -12.2820 C.ar    1  UNL1        0.0292
     14 C           7.4100   -5.6970  -11.8480 C.ar    1  UNL1        0.2379
     15 C          10.8830   -8.7200  -12.3400 C.3     1  UNL1        0.0361
     16 C          12.2710   -9.3490  -12.2830 C.3     1  UNL1        0.0642
     17 C          13.3370   -8.3650  -11.8940 C.3     1  UNL1        0.2070
     18 C          12.2600  -10.5520  -11.3520 C.3     1  UNL1        0.0762
     19 C           7.6700   -8.2120  -12.0330 C.3     1  UNL1        0.1102
     20 C          12.9830  -12.7990  -11.3050 C.3     1  UNL1        0.0897
     21 C          13.2530  -11.4740  -13.2650 C.3     1  UNL1        0.0897
     22 C           7.4710   -8.9070  -10.6750 C.3     1  UNL1        0.0419
     23 C           6.8550  -10.2960  -10.9270 C.3     1  UNL1        0.0742
     24 C           5.8780  -12.2320   -9.8590 C.3     1  UNL1        0.0897
@<TRIPOS>BOND
     1     1     2    1
     2     2    23    1
     3     2    24    1
     4     3     4    1
     5     3    17    1
     6     4     6   ar
     7     4    13   ar
     8     5    10   ar
     9     5    14   ar
    10     6     8   ar
    11     7    12   ar
    12     7    14   ar
    13     7    19    1
    14     8    10   ar
    15     9    14    1
    16    10    12   ar
    17    11    18    1
    18    11    20    1
    19    11    21    1
    20    12    13   ar
    21    13    15    1
    22    15    16    1
    23    16    17    1
    24    16    18    1
    25    19    22    1
    26    22    23    1
