3TZR_SS0_A_75
 OpenBabel10091713573D
Coordinates from PDB:3TZR:A:75 Model:1 without hydrogens
 53 55  0  0  0  0  0  0  0  0999 V2000
    8.0840  -11.5930   -9.3260 C   0  0  0  0  0  0  0  0  0  0  0  0
    6.7700  -11.0900   -9.6930 N   0  0  0  0  0  0  0  0  0  0  0  0
   13.2060   -7.1620  -12.5660 O   0  0  0  0  0  0  0  0  0  0  0  0
   12.0030   -6.4920  -12.3880 C   0  0  0  0  0  0  0  0  0  0  0  0
    8.2080   -4.5910  -11.8950 N   0  0  0  0  0  0  0  0  0  0  0  0
   11.9460   -4.9890  -12.3200 C   0  0  0  0  0  0  0  0  0  0  0  0
    8.1990   -6.8360  -11.9690 N   0  0  0  0  0  0  0  0  0  0  0  0
   10.7150   -4.2730  -12.1650 C   0  0  0  0  0  0  0  0  0  0  0  0
    5.9860   -5.6990  -11.6750 N   0  0  0  0  0  0  0  0  0  0  0  0
    9.5170   -5.0650  -12.0600 C   0  0  0  0  0  0  0  0  0  0  0  0
   13.2900  -11.4680  -11.8110 N   0  0  0  0  0  0  0  0  0  0  0  0
    9.5590   -6.5020  -12.1080 C   0  0  0  0  0  0  0  0  0  0  0  0
   10.8600   -7.2040  -12.2820 C   0  0  0  0  0  0  0  0  0  0  0  0
    7.4100   -5.6970  -11.8480 C   0  0  0  0  0  0  0  0  0  0  0  0
   10.8830   -8.7200  -12.3400 C   0  0  0  0  0  0  0  0  0  0  0  0
   12.2710   -9.3490  -12.2830 C   0  0  1  0  0  0  0  0  0  0  0  0
   13.3370   -8.3650  -11.8940 C   0  0  0  0  0  0  0  0  0  0  0  0
   12.2600  -10.5520  -11.3520 C   0  0  0  0  0  0  0  0  0  0  0  0
    7.6700   -8.2120  -12.0330 C   0  0  0  0  0  0  0  0  0  0  0  0
   12.9830  -12.7990  -11.3050 C   0  0  0  0  0  0  0  0  0  0  0  0
   13.2530  -11.4740  -13.2650 C   0  0  0  0  0  0  0  0  0  0  0  0
    7.4710   -8.9070  -10.6750 C   0  0  0  0  0  0  0  0  0  0  0  0
    6.8550  -10.2960  -10.9270 C   0  0  0  0  0  0  0  0  0  0  0  0
    5.8780  -12.2320   -9.8590 C   0  0  0  0  0  0  0  0  0  0  0  0
    8.7575  -10.7714   -9.1984 H   0  0  0  0  0  0  0  0  0  0  0  0
    8.4485  -12.2362  -10.0995 H   0  0  0  0  0  0  0  0  0  0  0  0
    8.0129  -12.1415   -8.4100 H   0  0  0  0  0  0  0  0  0  0  0  0
   12.8264   -4.4548  -12.3876 H   0  0  0  0  0  0  0  0  0  0  0  0
   10.6881   -3.2419  -12.1303 H   0  0  0  0  0  0  0  0  0  0  0  0
    5.4984   -4.8473  -11.5970 H   0  0  0  0  0  0  0  0  0  0  0  0
    5.4963   -6.5521  -11.6343 H   0  0  0  0  0  0  0  0  0  0  0  0
   10.4189   -9.0237  -13.2550 H   0  0  0  0  0  0  0  0  0  0  0  0
   10.3662   -9.0593  -11.4667 H   0  0  0  0  0  0  0  0  0  0  0  0
   12.5172   -9.6771  -13.2712 H   0  0  0  0  0  0  0  0  0  0  0  0
   13.2698   -8.1815  -10.8420 H   0  0  0  0  0  0  0  0  0  0  0  0
   14.2852   -8.7864  -12.1550 H   0  0  0  0  0  0  0  0  0  0  0  0
   12.4683  -10.2404  -10.3498 H   0  0  0  0  0  0  0  0  0  0  0  0
   11.3014  -11.0272  -11.3611 H   0  0  0  0  0  0  0  0  0  0  0  0
    8.3527   -8.8016  -12.6085 H   0  0  0  0  0  0  0  0  0  0  0  0
    6.6961   -8.1331  -12.4690 H   0  0  0  0  0  0  0  0  0  0  0  0
   13.0115  -12.7893  -10.2354 H   0  0  0  0  0  0  0  0  0  0  0  0
   13.7053  -13.4965  -11.6747 H   0  0  0  0  0  0  0  0  0  0  0  0
   12.0067  -13.0889  -11.6332 H   0  0  0  0  0  0  0  0  0  0  0  0
   13.4791  -10.4945  -13.6316 H   0  0  0  0  0  0  0  0  0  0  0  0
   12.2771  -11.7622  -13.5958 H   0  0  0  0  0  0  0  0  0  0  0  0
   13.9757  -12.1697  -13.6373 H   0  0  0  0  0  0  0  0  0  0  0  0
    6.8131   -8.3251  -10.0639 H   0  0  0  0  0  0  0  0  0  0  0  0
    8.4097   -9.0064  -10.1712 H   0  0  0  0  0  0  0  0  0  0  0  0
    5.8702  -10.1704  -11.3261 H   0  0  0  0  0  0  0  0  0  0  0  0
    7.4862  -10.8188  -11.6149 H   0  0  0  0  0  0  0  0  0  0  0  0
    5.8374  -12.7886   -8.9460 H   0  0  0  0  0  0  0  0  0  0  0  0
    6.2450  -12.8601  -10.6436 H   0  0  0  0  0  0  0  0  0  0  0  0
    4.8972  -11.8851  -10.1091 H   0  0  0  0  0  0  0  0  0  0  0  0
  1  2  1  0  0  0  0
  1 25  1  0  0  0  0
  1 26  1  0  0  0  0
  1 27  1  0  0  0  0
  2 23  1  0  0  0  0
  2 24  1  0  0  0  0
  3  4  1  0  0  0  0
  3 17  1  0  0  0  0
  4  6  2  0  0  0  0
  4 13  1  0  0  0  0
  5 10  1  0  0  0  0
  5 14  2  0  0  0  0
  6  8  1  0  0  0  0
  6 28  1  0  0  0  0
  7 12  1  0  0  0  0
  7 14  1  0  0  0  0
  7 19  1  0  0  0  0
  8 10  2  0  0  0  0
  8 29  1  0  0  0  0
  9 14  1  0  0  0  0
  9 30  1  0  0  0  0
  9 31  1  0  0  0  0
 10 12  1  0  0  0  0
 11 18  1  0  0  0  0
 11 20  1  0  0  0  0
 11 21  1  0  0  0  0
 12 13  2  0  0  0  0
 13 15  1  0  0  0  0
 15 16  1  0  0  0  0
 15 32  1  0  0  0  0
 15 33  1  0  0  0  0
 16 17  1  0  0  0  0
 16 18  1  0  0  0  0
 16 34  1  6  0  0  0
 17 35  1  0  0  0  0
 17 36  1  0  0  0  0
 18 37  1  0  0  0  0
 18 38  1  0  0  0  0
 19 22  1  0  0  0  0
 19 39  1  0  0  0  0
 19 40  1  0  0  0  0
 20 41  1  0  0  0  0
 20 42  1  0  0  0  0
 20 43  1  0  0  0  0
 21 44  1  0  0  0  0
 21 45  1  0  0  0  0
 21 46  1  0  0  0  0
 22 23  1  0  0  0  0
 22 47  1  0  0  0  0
 22 48  1  0  0  0  0
 23 49  1  0  0  0  0
 23 50  1  0  0  0  0
 24 51  1  0  0  0  0
 24 52  1  0  0  0  0
 24 53  1  0  0  0  0
A    1
C
A    2
N
A    3
O
A    4
C01
A    5
N01
A    6
C02
A    7
N02
A    8
C03
A    9
N03
A   10
C04
A   11
N04
A   12
C05
A   13
C06
A   14
C07
A   15
C08
A   16
C09
A   17
C10
A   18
C11
A   19
C12
A   20
C13
A   21
C14
A   22
C15
A   23
C16
A   24
C17
M  END
>  <InstanceId>
3TZR_SS0_A_75

>  <ChemCompId>
SS0

>  <PdbId>
3TZR

>  <ChainId>
A

>  <ResidueNumber>
75

>  <InsertionCode>


>  <Model>
1

>  <AltIds>


>  <MissingHeavyAtoms>
0

>  <ObservedFormula>
C18 N5 O

>  <Name>
(8R)-8-[(dimethylamino)methyl]-1-[3-(dimethylamino)propyl]-1,7,8,9-tetrahydrochromeno[5,6-d]imidazol-2-amine

>  <SystematicName>
(8R)-8-(dimethylaminomethyl)-1-[3-(dimethylamino)propyl]-8,9-dihydro-7H-pyrano[3,2-e]benzimidazol-2-amine

>  <Synonyms>


>  <Type>
NON-POLYMER

>  <Formula>
C18 H29 N5 O

>  <MolecularWeight>
331.456

>  <ModifiedDate>
2012-03-16

>  <Parent>


>  <OneLetterCode>


>  <SubcomponentList>


>  <AmbiguousFlag>
N

>  <InChI>
InChI=1S/C18H29N5O/c1-21(2)8-5-9-23-17-14-10-13(11-22(3)4)12-24-16(14)7-6-15(17)20-18(23)19/h6-7,13H,5,8-12H2,1-4H3,(H2,19,20)/t13-/m1/s1

>  <InChIKey>
HTUXJUVSTFSWOD-CYBMUJFWSA-N

>  <SMILES>
CN(C)CCCn1c2c(ccc3c2C[C@@H](CO3)CN(C)C)nc1N

$$$$
