REMARK  6 active torsions:
REMARK  status: ('A' for Active; 'I' for Inactive)
REMARK    1  A    between atoms: N_2  and  C_23 
REMARK    2  A    between atoms: N_7  and  C_19 
REMARK    3  A    between atoms: N_11  and  C_18 
REMARK    4  A    between atoms: C_16  and  C_18 
REMARK    5  A    between atoms: C_19  and  C_22 
REMARK    6  A    between atoms: C_22  and  C_23 
ROOT
ATOM      1  O   UNL d   1      13.206  -7.162 -12.566  0.00  0.00    -0.331 OA
ATOM      2  C   UNL d   1      12.003  -6.492 -12.388  0.00  0.00     0.091 A 
ATOM      3  N   UNL d   1       8.208  -4.591 -11.895  0.00  0.00    -0.214 NA
ATOM      4  C   UNL d   1      11.946  -4.989 -12.320  0.00  0.00     0.025 A 
ATOM      5  N   UNL d   1       8.199  -6.836 -11.969  0.00  0.00    -0.301 N 
ATOM      6  C   UNL d   1      10.715  -4.273 -12.165  0.00  0.00     0.023 A 
ATOM      7  N   UNL d   1       5.986  -5.699 -11.675  0.00  0.00    -0.061 NA
ATOM      8  C   UNL d   1       9.517  -5.065 -12.060  0.00  0.00     0.100 A 
ATOM      9  C   UNL d   1       9.559  -6.502 -12.108  0.00  0.00     0.078 A 
ATOM     10  C   UNL d   1      10.860  -7.204 -12.282  0.00  0.00     0.018 A 
ATOM     11  C   UNL d   1       7.410  -5.697 -11.848  0.00  0.00     0.219 A 
ATOM     12  C   UNL d   1      10.883  -8.720 -12.340  0.00  0.00     0.034 C 
ATOM     13  C   UNL d   1      12.271  -9.349 -12.283  0.00  0.00     0.068 C 
ATOM     14  C   UNL d   1      13.337  -8.365 -11.894  0.00  0.00     0.151 C 
ENDROOT
BRANCH   5  15
ATOM     15  C   UNL d   1       7.670  -8.212 -12.033  0.00  0.00     0.111 C 
BRANCH  15  16
ATOM     16  C   UNL d   1       7.471  -8.907 -10.675  0.00  0.00     0.060 C 
BRANCH  16  17
ATOM     17  C   UNL d   1       6.855 -10.296 -10.927  0.00  0.00     0.252 C 
BRANCH  17  18
ATOM     18  N   UNL d   1       6.770 -11.090  -9.693  0.00  0.00     0.141 N 
ATOM     19  C   UNL d   1       8.084 -11.593  -9.326  0.00  0.00     0.285 C 
ATOM     20  C   UNL d   1       5.878 -12.232  -9.859  0.00  0.00     0.285 C 
ENDBRANCH  17  18
ENDBRANCH  16  17
ENDBRANCH  15  16
ENDBRANCH   5  15
BRANCH  13  21
ATOM     21  C   UNL d   1      12.260 -10.552 -11.352  0.00  0.00     0.253 C 
BRANCH  21  22
ATOM     22  N   UNL d   1      13.290 -11.468 -11.811  0.00  0.00     0.141 N 
ATOM     23  C   UNL d   1      12.983 -12.799 -11.305  0.00  0.00     0.285 C 
ATOM     24  C   UNL d   1      13.253 -11.474 -13.265  0.00  0.00     0.285 C 
ENDBRANCH  21  22
ENDBRANCH  13  21
TORSDOF 6
