REMARK  12 active torsions:
REMARK  status: ('A' for Active; 'I' for Inactive)
REMARK    1  A    between atoms: CA_2  and  N_1 
REMARK    2  A    between atoms: CA_2  and  C_3 
REMARK    3  A    between atoms: CA_2  and  C_6 
REMARK    4  A    between atoms: C_3  and  OXT_5 
REMARK    5  A    between atoms: C_6  and  C_7 
REMARK    6  A    between atoms: S_8  and  C_7 
REMARK    7  A    between atoms: S_8  and  C_11 
REMARK    8  A    between atoms: C_11  and  C_12 
REMARK    9  A    between atoms: C_14  and  N_19 
REMARK   10  A    between atoms: C_15  and  O_18 
REMARK   11  A    between atoms: C_16  and  O_17 
REMARK   12  A    between atoms: C_23  and  N_24 
ROOT
ATOM      1  C   UNL d   1       7.573  -2.870  -3.651  0.00  0.00     0.163 C 
ATOM      2  O   UNL d   1       9.003  -3.032  -3.654  0.00  0.00    -0.355 OA
ATOM      3  C   UNL d   1       9.276  -4.208  -4.458  0.00  0.00     0.262 C 
ATOM      4  C   UNL d   1       8.170  -5.199  -4.078  0.00  0.00     0.198 C 
ATOM      5  C   UNL d   1       7.004  -4.296  -3.654  0.00  0.00     0.180 C 
ENDROOT
BRANCH   1   6
ATOM      6  C   UNL d   1       7.088  -2.048  -2.443  0.00  0.00     0.086 C 
BRANCH   6   7
ATOM      7  S   UNL d   1       7.811  -0.413  -2.336  0.00  0.00    -0.264 SA
ATOM      8  C   UNL d   1       7.357   0.445  -3.817  0.00  0.00     0.066 C 
ATOM      9  H   UNL d   1       9.148  -0.473  -2.213  0.00  0.00     0.081 HD
BRANCH   7  10
ATOM     10  C   UNL d   1       7.022   0.544  -1.063  0.00  0.00     0.054 C 
BRANCH  10  11
ATOM     11  C   UNL d   1       7.185   0.061   0.373  0.00  0.00     0.055 C 
BRANCH  11  12
ATOM     12  CA  UNL d   1       8.633  -0.056   0.863  0.00  0.00     0.315 C 
BRANCH  12  13
ATOM     13  C   UNL d   1       9.377   1.290   0.797  0.00  0.00     0.173 C 
ATOM     14  O   UNL d   1       8.873   2.378   1.018  0.00  0.00    -0.648 OA
BRANCH  13  15
ATOM     15  OXT UNL d   1      10.711   1.138   0.576  0.00  0.00    -0.775 OA
ATOM     16  HXT UNL d   1      10.983   0.209   0.452  0.00  0.00     0.167 HD
ENDBRANCH  13  15
ENDBRANCH  12  13
BRANCH  12  17
ATOM     17  N   UNL d   1       8.645  -0.535   2.265  0.00  0.00     0.093 N 
ATOM     18  H1  UNL d   1       8.127   0.137   2.841  0.00  0.00     0.314 HD
ATOM     19  H2  UNL d   1       9.594  -0.517   2.638  0.00  0.00     0.314 HD
ENDBRANCH  12  17
ENDBRANCH  11  12
ENDBRANCH  10  11
ENDBRANCH   7  10
ENDBRANCH   6   7
ENDBRANCH   1   6
BRANCH   5  20
ATOM     20  O   UNL d   1       5.882  -4.393  -4.528  0.00  0.00    -0.390 OA
ATOM     21  H   UNL d   1       5.901  -5.306  -4.885  0.00  0.00     0.210 HD
ENDBRANCH   5  20
BRANCH   3  22
ATOM     22  N   UNL d   1      10.643  -4.630  -4.204  0.00  0.00    -0.294 N 
ATOM     23  C   UNL d   1      11.671  -3.774  -3.888  0.00  0.00     0.214 A 
ATOM     24  N   UNL d   1      12.818  -4.401  -3.748  0.00  0.00    -0.236 NA
ATOM     25  C   UNL d   1      12.531  -5.718  -4.013  0.00  0.00     0.144 A 
ATOM     26  C   UNL d   1      13.348  -6.861  -4.032  0.00  0.00     0.135 A 
ATOM     27  C   UNL d   1      11.189  -5.884  -4.327  0.00  0.00     0.166 A 
ATOM     28  N   UNL d   1      12.788  -8.043  -4.372  0.00  0.00    -0.228 NA
ATOM     29  C   UNL d   1      11.466  -8.065  -4.659  0.00  0.00     0.237 A 
ATOM     30  N   UNL d   1      10.581  -7.035  -4.669  0.00  0.00    -0.222 NA
BRANCH  26  31
ATOM     31  N   UNL d   1      14.704  -6.823  -3.729  0.00  0.00    -0.285 NA
ATOM     32  H   UNL d   1      15.107  -5.895  -3.811  0.00  0.00     0.125 HD
ATOM     33  H   UNL d   1      15.219  -7.596  -4.127  0.00  0.00     0.125 HD
ENDBRANCH  26  31
ENDBRANCH   3  22
BRANCH   4  34
ATOM     34  O   UNL d   1       7.783  -6.082  -5.135  0.00  0.00    -0.388 OA
ATOM     35  H   UNL d   1       8.548  -6.679  -5.290  0.00  0.00     0.210 HD
ENDBRANCH   4  34
TORSDOF 12
