@<TRIPOS>MOLECULE
ligand.pdb
 51 53 0 0 0
SMALL
GASTEIGER

@<TRIPOS>ATOM
      1 N           8.6451   -0.5355    2.2647 N.3     1  UNL1       -0.3184
      2 CA          8.6332   -0.0558    0.8629 C.3     1  UNL1        0.1039
      3 HA          9.1562   -0.7906    0.2450 H       1  UNL1        0.0574
      4 C           9.3771    1.2897    0.7975 C.2     1  UNL1        0.3217
      5 O           8.8729    2.3781    1.0184 O.2     1  UNL1       -0.2493
      6 OXT        10.7107    1.1380    0.5759 O.3     1  UNL1       -0.4795
      7 C           7.1847    0.0614    0.3732 C.3     1  UNL1       -0.0199
      8 C           7.0218    0.5438   -1.0627 C.3     1  UNL1       -0.0230
      9 S           7.8106   -0.4135   -2.3358 S.3     1  UNL1       -0.2533
     10 H           9.1481   -0.4726   -2.2128 H       1  UNL1        0.0821
     11 C           7.3572    0.4451   -3.8169 C.3     1  UNL1       -0.0366
     12 C           7.0881   -2.0478   -2.4430 C.3     1  UNL1        0.0041
     13 C           7.5731   -2.8697   -3.6514 C.3     1  UNL1        0.0970
     14 H           7.3023   -2.3498   -4.5794 H       1  UNL1        0.0631
     15 O           9.0031   -3.0324   -3.6541 O.3     1  UNL1       -0.3472
     16 C           9.2758   -4.2076   -4.4585 C.3     1  UNL1        0.1666
     17 H           9.2310   -3.9369   -5.5219 H       1  UNL1        0.0866
     18 C           8.1702   -5.1990   -4.0780 C.3     1  UNL1        0.1285
     19 H           8.4687   -5.8106   -3.2203 H       1  UNL1        0.0665
     20 C           7.0039   -4.2959   -3.6541 C.3     1  UNL1        0.1121
     21 H           6.6672   -4.5924   -2.6552 H       1  UNL1        0.0647
     22 O           5.8822   -4.3934   -4.5277 O.3     1  UNL1       -0.3865
     23 O           7.7833   -6.0824   -5.1353 O.3     1  UNL1       -0.3847
     24 N          10.6427   -4.6302   -4.2041 N.ar    1  UNL1       -0.2855
     25 C          11.6708   -3.7743   -3.8875 C.ar    1  UNL1        0.1004
     26 N          12.8175   -4.4013   -3.7482 N.ar    1  UNL1       -0.2306
     27 C          12.5306   -5.7177   -4.0128 C.ar    1  UNL1        0.1473
     28 C          13.3479   -6.8613   -4.0319 C.ar    1  UNL1        0.1472
     29 N          14.7040   -6.8230   -3.7293 N.pl3   1  UNL1       -0.3413
     30 N          12.7878   -8.0430   -4.3724 N.ar    1  UNL1       -0.2188
     31 C          11.4660   -8.0645   -4.6589 C.ar    1  UNL1        0.1205
     32 N          10.5812   -7.0348   -4.6694 N.ar    1  UNL1       -0.2159
     33 C          11.1887   -5.8839   -4.3274 C.ar    1  UNL1        0.1674
     34 H1          8.1268    0.1369    2.8410 H       1  UNL1        0.1190
     35 H2          9.5937   -0.5169    2.6381 H       1  UNL1        0.1190
     36 HXT        10.9832    0.2086    0.4520 H       1  UNL1        0.2951
     37 H           6.6447    0.7742    1.0149 H       1  UNL1        0.0293
     38 H           6.6765   -0.9028    0.4911 H       1  UNL1        0.0293
     39 H           7.4222    1.5584   -1.1657 H       1  UNL1        0.0360
     40 H           5.9572    0.5907   -1.3142 H       1  UNL1        0.0360
     41 H           7.8754   -0.0034   -4.6634 H       1  UNL1        0.0324
     42 H           7.6552    1.4902   -3.7064 H       1  UNL1        0.0324
     43 H           6.2744    0.3786   -3.9420 H       1  UNL1        0.0324
     44 H           6.0017   -1.9202   -2.4799 H       1  UNL1        0.0385
     45 H           7.3606   -2.5472   -1.5084 H       1  UNL1        0.0385
     46 H           5.9012   -5.3056   -4.8850 H       1  UNL1        0.2100
     47 H           8.5476   -6.6786   -5.2896 H       1  UNL1        0.2101
     48 H          11.5183   -2.7077   -3.7724 H       1  UNL1        0.1030
     49 H          15.1072   -5.8952   -3.8110 H       1  UNL1        0.1438
     50 H          15.2189   -7.5965   -4.1271 H       1  UNL1        0.1438
     51 H          11.0664   -9.0449   -4.9112 H       1  UNL1        0.1048
@<TRIPOS>BOND
     1     1    34    1
     2     1    35    1
     3     2     4    1
     4     2     7    1
     5     2     3    1
     6     2     1    1
     7     4     5    2
     8     4     6    1
     9     6    36    1
    10     7     8    1
    11     7    37    1
    12     7    38    1
    13     8    39    1
    14     8    40    1
    15     9    11    1
    16     9    12    1
    17     9    10    1
    18     9     8    1
    19    11    41    1
    20    11    42    1
    21    11    43    1
    22    12    13    1
    23    12    44    1
    24    12    45    1
    25    13    14    1
    26    13    15    1
    27    13    20    1
    28    15    16    1
    29    16    18    1
    30    16    24    1
    31    16    17    1
    32    18    19    1
    33    18    20    1
    34    18    23    1
    35    20    21    1
    36    20    22    1
    37    22    46    1
    38    23    47    1
    39    24    25   ar
    40    24    33   ar
    41    25    26   ar
    42    25    48    1
    43    26    27   ar
    44    27    28   ar
    45    27    33   ar
    46    28    29    1
    47    28    30   ar
    48    29    49    1
    49    29    50    1
    50    30    31   ar
    51    31    32   ar
    52    31    51    1
    53    32    33   ar
