REMARK  2 active torsions:
REMARK  status: ('A' for Active; 'I' for Inactive)
REMARK    1  A    between atoms: N_1  and  C_2 
REMARK    2  A    between atoms: C_4  and  N_12 
ROOT
ATOM      1  C   UNL d   1       2.514   0.114   0.114  0.00  0.00     0.119 A 
ATOM      2  N   UNL d   1       3.155  -1.056   0.134  0.00  0.00    -0.206 NA
ATOM      3  C   UNL d   1       4.488  -1.005   0.117  0.00  0.00     0.202 A 
ATOM      4  N   UNL d   1       5.211   0.108   0.025  0.00  0.00    -0.198 NA
ATOM      5  C   UNL d   1       4.572   1.270   0.016  0.00  0.00     0.168 A 
ATOM      6  C   UNL d   1       3.193   1.329   0.071  0.00  0.00     0.069 A 
ATOM      7  C   UNL d   1       2.627   2.599   0.091  0.00  0.00     0.136 A 
ATOM      8  N   UNL d   1       3.346   3.731   0.043  0.00  0.00    -0.253 NA
ATOM      9  C   UNL d   1       4.670   3.554  -0.017  0.00  0.00     0.235 A 
ATOM     10  N   UNL d   1       5.309   2.378  -0.039  0.00  0.00    -0.221 NA
ENDROOT
BRANCH   1  11
ATOM     11  N   UNL d   1       1.120   0.040   0.193  0.00  0.00    -0.286 NA
ATOM     12  H   UNL d   1       0.865  -0.947   0.189  0.00  0.00     0.125 HD
ATOM     13  H   UNL d   1       0.652   0.545  -0.550  0.00  0.00     0.125 HD
ENDBRANCH   1  11
BRANCH   3  14
ATOM     14  N   UNL d   1       5.170  -2.200   0.178  0.00  0.00    -0.271 NA
ATOM     15  H   UNL d   1       4.606  -2.969  -0.151  0.00  0.00     0.127 HD
ATOM     16  H   UNL d   1       6.106  -2.101  -0.191  0.00  0.00     0.127 HD
ENDBRANCH   3  14
TORSDOF 2
