@<TRIPOS>MOLECULE
4LX5_29G_A_501
 18 19 0 0 0
SMALL
GASTEIGER

@<TRIPOS>ATOM
      1 N           1.1201    0.0400    0.1929 N.pl3   1  UNL1       -0.3424
      2 C           2.5142    0.1143    0.1137 C.ar    1  UNL1        0.1320
      3 N           3.1553   -1.0557    0.1342 N.ar    1  UNL1       -0.1994
      4 C           4.4880   -1.0049    0.1172 C.ar    1  UNL1        0.2162
      5 N           5.2106    0.1083    0.0252 N.ar    1  UNL1       -0.1947
      6 C           4.5722    1.2701    0.0158 C.ar    1  UNL1        0.1696
      7 C           3.1926    1.3294    0.0706 C.ar    1  UNL1        0.0768
      8 C           2.6266    2.5990    0.0913 C.ar    1  UNL1        0.0433
      9 N           3.3464    3.7311    0.0434 N.ar    1  UNL1       -0.2429
     10 C           4.6702    3.5545   -0.0168 C.ar    1  UNL1        0.1183
     11 N           5.3089    2.3778   -0.0388 N.ar    1  UNL1       -0.2158
     12 N           5.1705   -2.2004    0.1782 N.pl3   1  UNL1       -0.3274
     13 H           0.8654   -0.9465    0.1886 H       1  UNL1        0.1437
     14 H           0.6516    0.5454   -0.5505 H       1  UNL1        0.1437
     15 H           1.5517    2.7413    0.1571 H       1  UNL1        0.0838
     16 H           5.2867    4.4463   -0.0472 H       1  UNL1        0.1047
     17 H           4.6058   -2.9688   -0.1515 H       1  UNL1        0.1452
     18 H           6.1058   -2.1013   -0.1909 H       1  UNL1        0.1452
@<TRIPOS>BOND
     1     1     2    1
     2     1    13    1
     3     1    14    1
     4     2     3   ar
     5     2     7   ar
     6     3     4   ar
     7     4     5   ar
     8     4    12    1
     9     5     6   ar
    10     6     7   ar
    11     6    11   ar
    12     7     8   ar
    13     8     9   ar
    14     8    15    1
    15     9    10   ar
    16    10    11   ar
    17    10    16    1
    18    12    17    1
    19    12    18    1
