@<TRIPOS>MOLECULE
3GX3_SAH_A_301
 46 48 0 0 0
SMALL
GASTEIGER

@<TRIPOS>ATOM
      1 N1          3.4142    4.4386   -2.1707 N.3     1  <1>        -0.3184
      2 C1          4.8010    3.9887   -2.1378 C.3     1  <1>         0.1040
      3 H1          5.3405    4.5571   -2.9038 H       1  <1>         0.0574
      4 C2          5.5151    4.2420   -0.7990 C.3     1  <1>        -0.0183
      5 C3          4.8243    3.7274    0.4644 C.3     1  <1>        -0.0043
      6 S1          3.3240    4.7424    0.8259 S.3     1  <1>        -0.1580
      7 C4          3.3651    4.6923    2.6065 C.3     1  <1>         0.0226
      8 C5          3.0462    5.9600    3.4036 C.3     1  <1>         0.0986
      9 H2          3.8942    6.0027    4.0985 H       1  <1>         0.0632
     10 O1          2.9886    7.3140    2.8616 O.3     1  <1>        -0.3471
     11 C6          2.6958    8.0569    4.0968 C.3     1  <1>         0.1666
     12 H3          3.5844    7.9456    4.7344 H       1  <1>         0.0866
     13 C7          1.4907    7.2839    4.6427 C.3     1  <1>         0.1285
     14 H4          0.5999    7.6548    4.1210 H       1  <1>         0.0665
     15 C8          1.7561    5.8390    4.2044 C.3     1  <1>         0.1121
     16 H5          0.9337    5.5082    3.5603 H       1  <1>         0.0647
     17 O2          1.8929    4.8640    5.2235 O.3     1  <1>        -0.3865
     18 O3          1.3453    7.4651    6.0316 O.3     1  <1>        -0.3847
     19 N2          2.5372    9.5117    4.0293 N.ar    1  <1>        -0.2855
     20 C9          2.5188   10.2816    5.1842 C.ar    1  <1>         0.1004
     21 N3          2.4739   11.5713    4.9355 N.ar    1  <1>        -0.2306
     22 C10         2.6703   11.6618    3.5782 C.ar    1  <1>         0.1473
     23 C11         2.5861   12.8030    2.7469 C.ar    1  <1>         0.1472
     24 N4          2.8702   14.0984    3.2374 N.pl3   1  <1>        -0.3413
     25 N5          2.5945   12.5749    1.4038 N.ar    1  <1>        -0.2188
     26 C12         2.4809   11.2963    0.9681 C.ar    1  <1>         0.1205
     27 N6          2.4441   10.1467    1.6783 N.ar    1  <1>        -0.2159
     28 C13         2.4621   10.4045    2.9933 C.ar    1  <1>         0.1674
     29 C14         4.8108    2.5237   -2.5140 C.2     1  <1>         0.3217
     30 O4          4.3562    1.6076   -1.8441 O.2     1  <1>        -0.2493
     31 O5          5.3834    2.3479   -3.7315 O.3     1  <1>        -0.4795
     32 H6          2.8792    3.9543   -1.4484 H       1  <1>         0.1190
     33 H7          2.9726    4.2116   -3.0578 H       1  <1>         0.1190
     34 H8          5.7059    5.3179   -0.6849 H       1  <1>         0.0293
     35 H9          6.5160    3.7880   -0.8499 H       1  <1>         0.0293
     36 H10         5.5412    3.8137    1.2895 H       1  <1>         0.0377
     37 H11         4.5796    2.6610    0.3919 H       1  <1>         0.0377
     38 H12         4.3659    4.3755    2.9106 H       1  <1>         0.0402
     39 H13         2.7117    3.8645    2.9072 H       1  <1>         0.0402
     40 H14         2.4474    5.2146    5.9378 H       1  <1>         0.2100
     41 H15         1.0891    6.6193    6.4319 H       1  <1>         0.2101
     42 H16         2.5139    9.8444    6.1743 H       1  <1>         0.1030
     43 H17         2.3061   14.3211    4.0549 H       1  <1>         0.1438
     44 H18         2.6915   14.7969    2.5166 H       1  <1>         0.1438
     45 H19         2.4371   11.1806   -0.1083 H       1  <1>         0.1048
     46 H20         6.3432    2.1601   -3.6587 H       1  <1>         0.2951
@<TRIPOS>BOND
     1     1     2    1
     2     1    32    1
     3     1    33    1
     4     2     3    1
     5     2     4    1
     6     2    29    1
     7     4     5    1
     8     4    34    1
     9     4    35    1
    10     5     6    1
    11     5    36    1
    12     5    37    1
    13     6     7    1
    14     7     8    1
    15     7    38    1
    16     7    39    1
    17     8     9    1
    18     8    10    1
    19     8    15    1
    20    10    11    1
    21    11    13    1
    22    11    19    1
    23    11    12    1
    24    13    14    1
    25    13    15    1
    26    13    18    1
    27    15    16    1
    28    15    17    1
    29    17    40    1
    30    18    41    1
    31    19    20   ar
    32    19    28   ar
    33    20    21   ar
    34    20    42    1
    35    21    22   ar
    36    22    23   ar
    37    22    28   ar
    38    23    24    1
    39    23    25   ar
    40    24    43    1
    41    24    44    1
    42    25    26   ar
    43    26    27   ar
    44    26    45    1
    45    27    28   ar
    46    29    30    2
    47    29    31    1
    48    31    46    1
