REMARK  6 active torsions:
REMARK  status: ('A' for Active; 'I' for Inactive)
REMARK    1  A    between atoms: C_1  and  O_16 
REMARK    2  A    between atoms: C_7  and  N_13 
REMARK    3  A    between atoms: C_8  and  O_15 
REMARK    4  A    between atoms: C_17  and  O_15 
REMARK    5  A    between atoms: C_28  and  O_16 
REMARK    6  A    between atoms: C_21  and  C_22 
ROOT
ATOM      1  C   UNL d   1      -2.455   7.705   9.744  0.00  0.00     0.274 C 
ATOM      2  C   UNL d   1      -2.580   7.272  11.242  0.00  0.00     0.360 C 
ATOM      3  C   UNL d   1      -1.204   7.042  11.933  0.00  0.00     0.077 C 
ATOM      4  C   UNL d   1      -0.289   6.141  11.067  0.00  0.00     0.150 C 
ATOM      5  C   UNL d   1      -0.133   6.751   9.656  0.00  0.00     0.177 C 
ATOM      6  C   UNL d   1       0.818   5.892   8.780  0.00  0.00     0.221 C 
ATOM      7  C   UNL d   1       2.181   5.664   9.499  0.00  0.00     0.345 C 
ATOM      8  C   UNL d   1       1.993   5.127  10.949  0.00  0.00     0.275 C 
ATOM      9  O   UNL d   1      -1.438   6.927   9.033  0.00  0.00    -0.327 OA
ATOM     10  O   UNL d   1       1.009   5.914  11.688  0.00  0.00    -0.329 OA
ATOM     11  N   UNL d   1      -3.349   8.288  11.993  0.00  0.00     0.621 N 
ATOM     12  O   UNL d   1       0.213   4.657   8.419  0.00  0.00    -0.218 OA
ENDROOT
BRANCH   8  13
ATOM     13  O   UNL d   1       3.272   5.088  11.647  0.00  0.00    -0.302 OA
BRANCH  13  14
ATOM     14  C   UNL d   1       3.726   3.814  12.199  0.00  0.00     0.272 C 
ATOM     15  C   UNL d   1       4.771   4.037  13.329  0.00  0.00     0.241 C 
ATOM     16  C   UNL d   1       6.127   4.551  12.766  0.00  0.00     0.227 C 
ATOM     17  O   UNL d   1       4.249   4.910  14.329  0.00  0.00    -0.215 OA
ATOM     18  C   UNL d   1       6.650   3.626  11.629  0.00  0.00     0.364 C 
ATOM     19  O   UNL d   1       7.096   4.689  13.803  0.00  0.00    -0.218 OA
ATOM     20  C   UNL d   1       5.564   3.402  10.540  0.00  0.00     0.190 C 
ATOM     21  N   UNL d   1       7.904   4.147  11.042  0.00  0.00     0.622 N 
ATOM     22  O   UNL d   1       4.308   2.980  11.153  0.00  0.00    -0.327 OA
BRANCH  20  23
ATOM     23  C   UNL d   1       6.021   2.375   9.471  0.00  0.00     0.214 C 
ATOM     24  O   UNL d   1       5.694   2.827   8.161  0.00  0.00    -0.218 OA
ENDBRANCH  20  23
ENDBRANCH  13  14
ENDBRANCH   8  13
BRANCH   7  25
ATOM     25  N   UNL d   1       3.017   4.763   8.679  0.00  0.00     0.347 N 
ATOM     26  C   UNL d   1       3.762   5.495   7.632  0.00  0.00     0.328 C 
ENDBRANCH   7  25
BRANCH   1  27
ATOM     27  O   UNL d   1      -2.177   9.134   9.629  0.00  0.00    -0.327 OA
BRANCH  27  28
ATOM     28  C   UNL d   1      -3.086   9.938   8.822  0.00  0.00     0.188 C 
ATOM     29  C   UNL d   1      -3.515  11.241   9.553  0.00  0.00     0.214 C 
ATOM     30  C   UNL d   1      -4.558  12.035   8.717  0.00  0.00     0.222 C 
ATOM     31  O   UNL d   1      -4.023  10.950  10.851  0.00  0.00    -0.218 OA
ATOM     32  C   UNL d   1      -4.063  12.321   7.262  0.00  0.00     0.337 C 
ATOM     33  O   UNL d   1      -4.901  13.252   9.375  0.00  0.00    -0.218 OA
ATOM     34  C   UNL d   1      -3.501  11.053   6.552  0.00  0.00     0.084 C 
ATOM     35  N   UNL d   1      -5.134  12.945   6.456  0.00  0.00     0.619 N 
ATOM     36  C   UNL d   1      -2.476  10.276   7.432  0.00  0.00     0.334 C 
ATOM     37  N   UNL d   1      -2.032   9.064   6.710  0.00  0.00     0.619 N 
ENDBRANCH  27  28
ENDBRANCH   1  27
TORSDOF 6
