@<TRIPOS>MOLECULE
2M4Q_AM2_1_101
 37 40 0 0 0
SMALL
GASTEIGER
****
Coordinates from PDB:2M4Q:1:101 Model:1 without hydrogens
@<TRIPOS>ATOM
      1 C          -2.4550    7.7050    9.7440 C.3     1  UNL1        0.2535
      2 C          -2.5800    7.2720   11.2420 C.3     1  UNL1        0.1505
      3 C          -1.2040    7.0420   11.9330 C.3     1  UNL1        0.0564
      4 C          -0.2890    6.1410   11.0670 C.3     1  UNL1        0.1491
      5 C          -0.1330    6.7510    9.6560 C.3     1  UNL1        0.1766
      6 C           0.8180    5.8920    8.7800 C.3     1  UNL1        0.2022
      7 C           2.1810    5.6640    9.4990 C.3     1  UNL1        0.1619
      8 C           1.9930    5.1270   10.9490 C.3     1  UNL1        0.2562
      9 C           3.7620    5.4950    7.6320 C.3     1  UNL1        0.1077
     10 O          -1.4380    6.9270    9.0330 O.3     1  UNL1       -0.3267
     11 O           1.0090    5.9140   11.6880 O.3     1  UNL1       -0.3292
     12 N          -3.3490    8.2880   11.9930 N.3     1  UNL1       -0.1275
     13 N           3.0170    4.7630    8.6790 N.3     1  UNL1       -0.2103
     14 O           0.2130    4.6570    8.4190 O.3     1  UNL1       -0.2188
     15 O           3.2720    5.0880   11.6470 O.3     1  UNL1       -0.3025
     16 O          -2.1770    9.1340    9.6290 O.3     1  UNL1       -0.3277
     17 C           3.7260    3.8140   12.1990 C.3     1  UNL1        0.2712
     18 C           4.7710    4.0370   13.3290 C.3     1  UNL1        0.2395
     19 C           6.1270    4.5510   12.7660 C.3     1  UNL1        0.2071
     20 C           6.6500    3.6260   11.6290 C.3     1  UNL1        0.1545
     21 C           5.5640    3.4020   10.5400 C.3     1  UNL1        0.1707
     22 C           6.0210    2.3750    9.4710 C.3     1  UNL1        0.2131
     23 O           4.3080    2.9800   11.1530 O.3     1  UNL1       -0.3267
     24 N           7.9040    4.1470   11.0420 N.3     1  UNL1       -0.1275
     25 O           4.2490    4.9100   14.3290 O.3     1  UNL1       -0.2149
     26 O           7.0960    4.6890   13.8030 O.3     1  UNL1       -0.2186
     27 O           5.6940    2.8270    8.1610 O.3     1  UNL1       -0.2176
     28 C          -3.0860    9.9380    8.8220 C.3     1  UNL1        0.1681
     29 C          -3.5150   11.2410    9.5530 C.3     1  UNL1        0.2119
     30 C          -4.5580   12.0350    8.7170 C.3     1  UNL1        0.2020
     31 C          -4.0630   12.3210    7.2620 C.3     1  UNL1        0.1262
     32 C          -3.5010   11.0530    6.5520 C.3     1  UNL1        0.0433
     33 C          -2.4760   10.2760    7.4320 C.3     1  UNL1        0.1231
     34 N          -5.1340   12.9450    6.4560 N.3     1  UNL1       -0.1301
     35 N          -2.0320    9.0640    6.7100 N.3     1  UNL1       -0.1302
     36 O          -4.0230   10.9500   10.8510 O.3     1  UNL1       -0.2177
     37 O          -4.9010   13.2520    9.3750 O.3     1  UNL1       -0.2188
@<TRIPOS>BOND
     1     1     2    1
     2     1    10    1
     3     1    16    1
     4     2     3    1
     5     2    12    1
     6     4     3    1
     7     4     5    1
     8     4    11    1
     9     5     6    1
    10     5    10    1
    11     6     7    1
    12     6    14    1
    13     7     8    1
    14     7    13    1
    15     8    11    1
    16     8    15    1
    17     9    13    1
    18    17    15    1
    19    17    18    1
    20    17    23    1
    21    18    19    1
    22    18    25    1
    23    19    20    1
    24    19    26    1
    25    20    21    1
    26    20    24    1
    27    21    22    1
    28    21    23    1
    29    22    27    1
    30    28    16    1
    31    28    29    1
    32    28    33    1
    33    29    30    1
    34    29    36    1
    35    30    31    1
    36    30    37    1
    37    31    32    1
    38    31    34    1
    39    32    33    1
    40    33    35    1
