2M4Q_AM2_1_101
 OpenBabel10091713583D
Coordinates from PDB:2M4Q:1:101 Model:1 without hydrogens
 78 81  0  0  0  0  0  0  0  0999 V2000
   -2.4550    7.7050    9.7440 C   0  0  2  0  0  0  0  0  0  0  0  0
   -2.5800    7.2720   11.2420 C   0  0  1  0  0  0  0  0  0  0  0  0
   -1.2040    7.0420   11.9330 C   0  0  0  0  0  0  0  0  0  0  0  0
   -0.2890    6.1410   11.0670 C   0  0  1  0  0  0  0  0  0  0  0  0
   -0.1330    6.7510    9.6560 C   0  0  1  0  0  0  0  0  0  0  0  0
    0.8180    5.8920    8.7800 C   0  0  1  0  0  0  0  0  0  0  0  0
    2.1810    5.6640    9.4990 C   0  0  1  0  0  0  0  0  0  0  0  0
    1.9930    5.1270   10.9490 C   0  0  2  0  0  0  0  0  0  0  0  0
    3.7620    5.4950    7.6320 C   0  0  0  0  0  0  0  0  0  0  0  0
   -1.4380    6.9270    9.0330 O   0  0  0  0  0  0  0  0  0  0  0  0
    1.0090    5.9140   11.6880 O   0  0  0  0  0  0  0  0  0  0  0  0
   -3.3490    8.2880   11.9930 N   0  0  0  0  0  0  0  0  0  0  0  0
    3.0170    4.7630    8.6790 N   0  0  0  0  0  0  0  0  0  0  0  0
    0.2130    4.6570    8.4190 O   0  0  0  0  0  0  0  0  0  0  0  0
    3.2720    5.0880   11.6470 O   0  0  0  0  0  0  0  0  0  0  0  0
   -2.1770    9.1340    9.6290 O   0  0  0  0  0  0  0  0  0  0  0  0
    3.7260    3.8140   12.1990 C   0  0  2  0  0  0  0  0  0  0  0  0
    4.7710    4.0370   13.3290 C   0  0  1  0  0  0  0  0  0  0  0  0
    6.1270    4.5510   12.7660 C   0  0  2  0  0  0  0  0  0  0  0  0
    6.6500    3.6260   11.6290 C   0  0  1  0  0  0  0  0  0  0  0  0
    5.5640    3.4020   10.5400 C   0  0  1  0  0  0  0  0  0  0  0  0
    6.0210    2.3750    9.4710 C   0  0  0  0  0  0  0  0  0  0  0  0
    4.3080    2.9800   11.1530 O   0  0  0  0  0  0  0  0  0  0  0  0
    7.9040    4.1470   11.0420 N   0  0  0  0  0  0  0  0  0  0  0  0
    4.2490    4.9100   14.3290 O   0  0  0  0  0  0  0  0  0  0  0  0
    7.0960    4.6890   13.8030 O   0  0  0  0  0  0  0  0  0  0  0  0
    5.6940    2.8270    8.1610 O   0  0  0  0  0  0  0  0  0  0  0  0
   -3.0860    9.9380    8.8220 C   0  0  1  0  0  0  0  0  0  0  0  0
   -3.5150   11.2410    9.5530 C   0  0  1  0  0  0  0  0  0  0  0  0
   -4.5580   12.0350    8.7170 C   0  0  2  0  0  0  0  0  0  0  0  0
   -4.0630   12.3210    7.2620 C   0  0  1  0  0  0  0  0  0  0  0  0
   -3.5010   11.0530    6.5520 C   0  0  0  0  0  0  0  0  0  0  0  0
   -2.4760   10.2760    7.4320 C   0  0  2  0  0  0  0  0  0  0  0  0
   -5.1340   12.9450    6.4560 N   0  0  0  0  0  0  0  0  0  0  0  0
   -2.0320    9.0640    6.7100 N   0  0  0  0  0  0  0  0  0  0  0  0
   -4.0230   10.9500   10.8510 O   0  0  0  0  0  0  0  0  0  0  0  0
   -4.9010   13.2520    9.3750 O   0  0  0  0  0  0  0  0  0  0  0  0
   -3.3993    7.5049    9.2824 H   0  0  0  0  0  0  0  0  0  0  0  0
   -3.0912    6.3321   11.2489 H   0  0  0  0  0  0  0  0  0  0  0  0
   -1.3631    6.5707   12.8803 H   0  0  0  0  0  0  0  0  0  0  0  0
   -0.7250    7.9902   12.0605 H   0  0  0  0  0  0  0  0  0  0  0  0
   -0.7575    5.1827   10.9827 H   0  0  0  0  0  0  0  0  0  0  0  0
    0.3159    7.7179    9.7481 H   0  0  0  0  0  0  0  0  0  0  0  0
    1.0090    6.4323    7.8764 H   0  0  0  0  0  0  0  0  0  0  0  0
    2.6813    6.6046    9.5987 H   0  0  0  0  0  0  0  0  0  0  0  0
    1.6146    4.1281   10.8862 H   0  0  0  0  0  0  0  0  0  0  0  0
    4.3514    4.8049    7.0652 H   0  0  0  0  0  0  0  0  0  0  0  0
    4.4029    6.2189    8.0904 H   0  0  0  0  0  0  0  0  0  0  0  0
    3.0707    5.9908    6.9829 H   0  0  0  0  0  0  0  0  0  0  0  0
   -2.8471    9.1758   11.9755 H   0  0  0  0  0  0  0  0  0  0  0  0
   -3.4644    7.9816   12.9590 H   0  0  0  0  0  0  0  0  0  0  0  0
    2.4148    4.0718    8.2318 H   0  0  0  0  0  0  0  0  0  0  0  0
    0.0267    4.1420    9.2196 H   0  0  0  0  0  0  0  0  0  0  0  0
    2.8736    3.3162   12.6120 H   0  0  0  0  0  0  0  0  0  0  0  0
    4.9678    3.0906   13.7879 H   0  0  0  0  0  0  0  0  0  0  0  0
    5.9585    5.5206   12.3461 H   0  0  0  0  0  0  0  0  0  0  0  0
    6.8720    2.6741   12.0642 H   0  0  0  0  0  0  0  0  0  0  0  0
    5.4100    4.3358   10.0408 H   0  0  0  0  0  0  0  0  0  0  0  0
    5.5324    1.4403    9.6514 H   0  0  0  0  0  0  0  0  0  0  0  0
    7.0827    2.2603    9.5384 H   0  0  0  0  0  0  0  0  0  0  0  0
    7.7278    5.0572   10.6167 H   0  0  0  0  0  0  0  0  0  0  0  0
    8.2413    3.4988   10.3304 H   0  0  0  0  0  0  0  0  0  0  0  0
    4.0622    5.7769   13.9359 H   0  0  0  0  0  0  0  0  0  0  0  0
    7.2681    3.8219   14.2022 H   0  0  0  0  0  0  0  0  0  0  0  0
    4.7329    2.9351    8.0868 H   0  0  0  0  0  0  0  0  0  0  0  0
   -3.9612    9.3420    8.6680 H   0  0  0  0  0  0  0  0  0  0  0  0
   -2.6463   11.8557    9.6644 H   0  0  0  0  0  0  0  0  0  0  0  0
   -5.4303   11.4206    8.6369 H   0  0  0  0  0  0  0  0  0  0  0  0
   -3.2481   13.0094    7.3459 H   0  0  0  0  0  0  0  0  0  0  0  0
   -3.0163   11.3540    5.6468 H   0  0  0  0  0  0  0  0  0  0  0  0
   -4.3249   10.3977    6.3605 H   0  0  0  0  0  0  0  0  0  0  0  0
   -1.6194   10.8910    7.6137 H   0  0  0  0  0  0  0  0  0  0  0  0
   -5.9164   12.2963    6.3698 H   0  0  0  0  0  0  0  0  0  0  0  0
   -4.7745   13.1693    5.5282 H   0  0  0  0  0  0  0  0  0  0  0  0
   -2.8360    8.4636    6.5271 H   0  0  0  0  0  0  0  0  0  0  0  0
   -1.3529    8.5588    7.2792 H   0  0  0  0  0  0  0  0  0  0  0  0
   -4.8126   10.3923   10.7716 H   0  0  0  0  0  0  0  0  0  0  0  0
   -4.1128   13.8124    9.4499 H   0  0  0  0  0  0  0  0  0  0  0  0
  1  2  1  0  0  0  0
  1 10  1  0  0  0  0
  1 16  1  0  0  0  0
  1 38  1  6  0  0  0
  2  3  1  0  0  0  0
  2 12  1  0  0  0  0
  2 39  1  1  0  0  0
  3  4  1  0  0  0  0
  3 40  1  0  0  0  0
  3 41  1  0  0  0  0
  4  5  1  0  0  0  0
  4 11  1  0  0  0  0
  4 42  1  6  0  0  0
  5  6  1  0  0  0  0
  5 10  1  0  0  0  0
  5 43  1  1  0  0  0
  6  7  1  0  0  0  0
  6 14  1  0  0  0  0
  6 44  1  6  0  0  0
  7  8  1  0  0  0  0
  7 13  1  0  0  0  0
  7 45  1  1  0  0  0
  8 11  1  0  0  0  0
  8 15  1  0  0  0  0
  8 46  1  6  0  0  0
  9 13  1  0  0  0  0
  9 47  1  0  0  0  0
  9 48  1  0  0  0  0
  9 49  1  0  0  0  0
 12 50  1  0  0  0  0
 12 51  1  0  0  0  0
 13 52  1  0  0  0  0
 14 53  1  0  0  0  0
 15 17  1  0  0  0  0
 16 28  1  0  0  0  0
 17 18  1  0  0  0  0
 17 23  1  0  0  0  0
 17 54  1  1  0  0  0
 18 19  1  0  0  0  0
 18 25  1  0  0  0  0
 18 55  1  1  0  0  0
 19 20  1  0  0  0  0
 19 26  1  0  0  0  0
 19 56  1  6  0  0  0
 20 21  1  0  0  0  0
 20 24  1  0  0  0  0
 20 57  1  1  0  0  0
 21 22  1  0  0  0  0
 21 23  1  0  0  0  0
 21 58  1  6  0  0  0
 22 27  1  0  0  0  0
 22 59  1  0  0  0  0
 22 60  1  0  0  0  0
 24 61  1  0  0  0  0
 24 62  1  0  0  0  0
 25 63  1  0  0  0  0
 26 64  1  0  0  0  0
 27 65  1  0  0  0  0
 28 29  1  0  0  0  0
 28 33  1  0  0  0  0
 28 66  1  6  0  0  0
 29 30  1  0  0  0  0
 29 36  1  0  0  0  0
 29 67  1  1  0  0  0
 30 31  1  0  0  0  0
 30 37  1  0  0  0  0
 30 68  1  6  0  0  0
 31 32  1  0  0  0  0
 31 34  1  0  0  0  0
 31 69  1  1  0  0  0
 32 33  1  0  0  0  0
 32 70  1  0  0  0  0
 32 71  1  0  0  0  0
 33 35  1  0  0  0  0
 33 72  1  1  0  0  0
 34 73  1  0  0  0  0
 34 74  1  0  0  0  0
 35 75  1  0  0  0  0
 35 76  1  0  0  0  0
 36 77  1  0  0  0  0
 37 78  1  0  0  0  0
A    1
CA1
A    2
CA2
A    3
CA3
A    4
CA4
A    5
CA5
A    6
CA6
A    7
CA7
A    8
CA8
A    9
CA9
A   10
OA4
A   11
OA5
A   12
NA2
A   13
NA7
A   14
OA6
A   15
OA8
A   16
OA1
A   17
CB1
A   18
CB2
A   19
CB3
A   20
CB4
A   21
CB5
A   22
CB6
A   23
OB1
A   24
NB4
A   25
OB2
A   26
OB3
A   27
OB6
A   28
CC1
A   29
CC2
A   30
CC3
A   31
CC4
A   32
CC5
A   33
CC6
A   34
NC4
A   35
NC6
A   36
OC2
A   37
OC3
M  END
>  <InstanceId>
2M4Q_AM2_1_101

>  <ChemCompId>
AM2

>  <PdbId>
2M4Q

>  <ChainId>
1

>  <ResidueNumber>
101

>  <InsertionCode>


>  <Model>
1

>  <AltIds>


>  <MissingHeavyAtoms>
0

>  <ObservedFormula>
C21 N5 O11

>  <Name>
APRAMYCIN

>  <SystematicName>
(2R,3R,4S,5S,6S)-2-[[(2R,3S,4R,4aR,6S,7R,8aS)-7-amino-6-[(1R,2R,3S,4R,6S)-4,6-diamino-2,3-dihydroxy-cyclohexyl]oxy-4-hydroxy-3-methylamino-2,3,4,4a,6,7,8,8a-octahydropyrano[2,3-e]pyran-2-yl]oxy]-5-amino-6-(hydroxymethyl)oxane-3,4-diol

>  <Synonyms>
NEBRAMYCIN II, 4-O-(3ALPHA-AMINO-6ALPHA-((4-AMINO-4-DEOXY-ALPHA-D-GLUCOPYRANOSYL)OXY)-2,3,4,5ABETA,6,7,8,8AALPHA-OCTAHYDRO-8BETA-HYDROXY-7BETA-(METHYLAMINO)PYRANO(3,2-B)PYRAN-2ALPHA-YL)-2-DEOXY-D-STREPTAMINE

>  <Type>
NON-POLYMER

>  <Formula>
C21 H41 N5 O11

>  <MolecularWeight>
539.577

>  <ModifiedDate>
2011-06-04

>  <Parent>


>  <OneLetterCode>


>  <SubcomponentList>


>  <AmbiguousFlag>
N

>  <InChI>
InChI=1S/C21H41N5O11/c1-26-11-14(30)18-8(33-20(11)37-21-16(32)13(29)10(25)9(4-27)34-21)3-7(24)19(36-18)35-17-6(23)2-5(22)12(28)15(17)31/h5-21,26-32H,2-4,22-25H2,1H3/t5-,6+,7-,8+,9-,10-,11+,12+,13+,14-,15-,16-,17-,18+,19+,20-,21-/m1/s1

>  <InChIKey>
XZNUGFQTQHRASN-XQENGBIVSA-N

>  <SMILES>
CN[C@H]1[C@H]([C@@H]2[C@H](C[C@H]([C@H](O2)O[C@@H]3[C@H](C[C@H]([C@@H]([C@H]3O)O)N)N)N)O[C@@H]1O[C@@H]4[C@@H]([C@H]([C@@H]([C@H](O4)CO)N)O)O)O

$$$$
