REMARK  6 active torsions:
REMARK  status: ('A' for Active; 'I' for Inactive)
REMARK    1  A    between atoms: C_1  and  O_16 
REMARK    2  A    between atoms: C_7  and  N_13 
REMARK    3  A    between atoms: C_8  and  O_15 
REMARK    4  A    between atoms: C_17  and  O_15 
REMARK    5  A    between atoms: C_28  and  O_16 
REMARK    6  A    between atoms: C_21  and  C_22 
ROOT
ATOM      1  C   UNL d   1      20.240   1.084  53.472  0.00  0.00     0.274 C 
ATOM      2  C   UNL d   1      19.123   1.519  52.449  0.00  0.00     0.360 C 
ATOM      3  C   UNL d   1      18.587   0.271  51.717  0.00  0.00     0.077 C 
ATOM      4  C   UNL d   1      19.812  -0.361  50.985  0.00  0.00     0.150 C 
ATOM      5  C   UNL d   1      20.974  -0.793  52.019  0.00  0.00     0.177 C 
ATOM      6  C   UNL d   1      22.208  -1.407  51.295  0.00  0.00     0.208 C 
ATOM      7  C   UNL d   1      21.696  -2.657  50.469  0.00  0.00     0.187 C 
ATOM      8  C   UNL d   1      20.540  -2.195  49.515  0.00  0.00     0.263 C 
ATOM      9  O   UNL d   1      21.373   0.394  52.788  0.00  0.00    -0.327 OA
ATOM     10  O   UNL d   1      19.407  -1.547  50.239  0.00  0.00    -0.329 OA
ATOM     11  N   UNL d   1      17.999   2.207  53.160  0.00  0.00     0.621 N 
ATOM     12  O   UNL d   1      22.754  -0.387  50.457  0.00  0.00    -0.218 OA
ENDROOT
BRANCH   8  13
ATOM     13  O   UNL d   1      20.050  -3.295  48.839  0.00  0.00    -0.302 OA
BRANCH  13  14
ATOM     14  C   UNL d   1      19.321  -2.953  47.648  0.00  0.00     0.272 C 
ATOM     15  C   UNL d   1      18.087  -3.874  47.491  0.00  0.00     0.241 C 
ATOM     16  C   UNL d   1      18.499  -5.356  47.234  0.00  0.00     0.227 C 
ATOM     17  O   UNL d   1      17.295  -3.734  48.686  0.00  0.00    -0.215 OA
ATOM     18  C   UNL d   1      19.377  -5.431  45.950  0.00  0.00     0.364 C 
ATOM     19  O   UNL d   1      17.325  -6.120  47.054  0.00  0.00    -0.218 OA
ATOM     20  C   UNL d   1      20.656  -4.532  46.213  0.00  0.00     0.190 C 
ATOM     21  N   UNL d   1      19.772  -6.847  45.702  0.00  0.00     0.622 N 
ATOM     22  O   UNL d   1      20.208  -3.117  46.467  0.00  0.00    -0.327 OA
BRANCH  20  23
ATOM     23  C   UNL d   1      21.596  -4.510  45.011  0.00  0.00     0.214 C 
ATOM     24  O   UNL d   1      20.862  -4.227  43.849  0.00  0.00    -0.218 OA
ENDBRANCH  20  23
ENDBRANCH  13  14
ENDBRANCH   8  13
BRANCH   7  25
ATOM     25  N   UNL d   1      22.833  -3.303  49.682  0.00  0.00    -0.287 NA
ATOM     26  C   UNL d   1      24.059  -3.801  50.405  0.00  0.00     0.146 C 
ENDBRANCH   7  25
BRANCH   1  27
ATOM     27  O   UNL d   1      19.725   0.197  54.473  0.00  0.00    -0.327 OA
BRANCH  27  28
ATOM     28  C   UNL d   1      20.408   0.278  55.707  0.00  0.00     0.188 C 
ATOM     29  C   UNL d   1      19.541   1.131  56.688  0.00  0.00     0.214 C 
ATOM     30  C   UNL d   1      20.297   1.255  58.043  0.00  0.00     0.222 C 
ATOM     31  O   UNL d   1      19.324   2.448  56.148  0.00  0.00    -0.218 OA
ATOM     32  C   UNL d   1      20.567  -0.153  58.658  0.00  0.00     0.337 C 
ATOM     33  O   UNL d   1      19.487   2.026  58.915  0.00  0.00    -0.218 OA
ATOM     34  C   UNL d   1      21.432  -1.025  57.670  0.00  0.00     0.084 C 
ATOM     35  N   UNL d   1      21.295  -0.008  59.949  0.00  0.00     0.619 N 
ATOM     36  C   UNL d   1      20.656  -1.154  56.294  0.00  0.00     0.334 C 
ATOM     37  N   UNL d   1      21.473  -1.977  55.374  0.00  0.00     0.619 N 
ENDBRANCH  27  28
ENDBRANCH   1  27
TORSDOF 6
