@<TRIPOS>MOLECULE
2OE8_AM2_B_101
 37 40 0 0 0
SMALL
GASTEIGER
****
Coordinates from PDB:2OE8:B:101 Model:1 without hydrogens
@<TRIPOS>ATOM
      1 C          20.2400    1.0840   53.4720 C.3     1  UNL1        0.2535
      2 C          19.1230    1.5190   52.4490 C.3     1  UNL1        0.1505
      3 C          18.5870    0.2710   51.7170 C.3     1  UNL1        0.0564
      4 C          19.8120   -0.3610   50.9850 C.3     1  UNL1        0.1491
      5 C          20.9740   -0.7930   52.0190 C.3     1  UNL1        0.1766
      6 C          22.2080   -1.4070   51.2950 C.3     1  UNL1        0.2022
      7 C          21.6960   -2.6570   50.4690 C.3     1  UNL1        0.1619
      8 C          20.5400   -2.1950   49.5150 C.3     1  UNL1        0.2562
      9 C          24.0590   -3.8010   50.4050 C.3     1  UNL1        0.1077
     10 O          21.3730    0.3940   52.7880 O.3     1  UNL1       -0.3267
     11 O          19.4070   -1.5470   50.2390 O.3     1  UNL1       -0.3292
     12 N          17.9990    2.2070   53.1600 N.3     1  UNL1       -0.1275
     13 N          22.8330   -3.3030   49.6820 N.3     1  UNL1       -0.2103
     14 O          22.7540   -0.3870   50.4570 O.3     1  UNL1       -0.2188
     15 O          20.0500   -3.2950   48.8390 O.3     1  UNL1       -0.3025
     16 O          19.7250    0.1970   54.4730 O.3     1  UNL1       -0.3277
     17 C          19.3210   -2.9530   47.6480 C.3     1  UNL1        0.2712
     18 C          18.0870   -3.8740   47.4910 C.3     1  UNL1        0.2395
     19 C          18.4990   -5.3560   47.2340 C.3     1  UNL1        0.2071
     20 C          19.3770   -5.4310   45.9500 C.3     1  UNL1        0.1545
     21 C          20.6560   -4.5320   46.2130 C.3     1  UNL1        0.1707
     22 C          21.5960   -4.5100   45.0110 C.3     1  UNL1        0.2131
     23 O          20.2080   -3.1170   46.4670 O.3     1  UNL1       -0.3267
     24 N          19.7720   -6.8470   45.7020 N.3     1  UNL1       -0.1275
     25 O          17.2950   -3.7340   48.6860 O.3     1  UNL1       -0.2149
     26 O          17.3250   -6.1200   47.0540 O.3     1  UNL1       -0.2186
     27 O          20.8620   -4.2270   43.8490 O.3     1  UNL1       -0.2176
     28 C          20.4080    0.2780   55.7070 C.3     1  UNL1        0.1681
     29 C          19.5410    1.1310   56.6880 C.3     1  UNL1        0.2119
     30 C          20.2970    1.2550   58.0430 C.3     1  UNL1        0.2020
     31 C          20.5670   -0.1530   58.6580 C.3     1  UNL1        0.1262
     32 C          21.4320   -1.0250   57.6700 C.3     1  UNL1        0.0433
     33 C          20.6560   -1.1540   56.2940 C.3     1  UNL1        0.1231
     34 N          21.2950   -0.0080   59.9490 N.3     1  UNL1       -0.1301
     35 N          21.4730   -1.9770   55.3740 N.3     1  UNL1       -0.1302
     36 O          19.3240    2.4480   56.1480 O.3     1  UNL1       -0.2177
     37 O          19.4870    2.0260   58.9150 O.3     1  UNL1       -0.2188
@<TRIPOS>BOND
     1     1     2    1
     2     1    10    1
     3     1    16    1
     4     2     3    1
     5     2    12    1
     6     4     3    1
     7     4     5    1
     8     4    11    1
     9     5     6    1
    10     5    10    1
    11     6     7    1
    12     6    14    1
    13     7     8    1
    14     7    13    1
    15     8    11    1
    16     8    15    1
    17     9    13    1
    18    17    15    1
    19    17    18    1
    20    17    23    1
    21    18    19    1
    22    18    25    1
    23    19    20    1
    24    19    26    1
    25    20    21    1
    26    20    24    1
    27    21    22    1
    28    21    23    1
    29    22    27    1
    30    28    16    1
    31    28    29    1
    32    28    33    1
    33    29    30    1
    34    29    36    1
    35    30    31    1
    36    30    37    1
    37    31    32    1
    38    31    34    1
    39    32    33    1
    40    33    35    1
