2OE8_AM2_B_101
 OpenBabel10091713573D
Coordinates from PDB:2OE8:B:101 Model:1 without hydrogens
 78 81  0  0  0  0  0  0  0  0999 V2000
   20.2400    1.0840   53.4720 C   0  0  2  0  0  0  0  0  0  0  0  0
   19.1230    1.5190   52.4490 C   0  0  1  0  0  0  0  0  0  0  0  0
   18.5870    0.2710   51.7170 C   0  0  0  0  0  0  0  0  0  0  0  0
   19.8120   -0.3610   50.9850 C   0  0  1  0  0  0  0  0  0  0  0  0
   20.9740   -0.7930   52.0190 C   0  0  1  0  0  0  0  0  0  0  0  0
   22.2080   -1.4070   51.2950 C   0  0  1  0  0  0  0  0  0  0  0  0
   21.6960   -2.6570   50.4690 C   0  0  1  0  0  0  0  0  0  0  0  0
   20.5400   -2.1950   49.5150 C   0  0  2  0  0  0  0  0  0  0  0  0
   24.0590   -3.8010   50.4050 C   0  0  0  0  0  0  0  0  0  0  0  0
   21.3730    0.3940   52.7880 O   0  0  0  0  0  0  0  0  0  0  0  0
   19.4070   -1.5470   50.2390 O   0  0  0  0  0  0  0  0  0  0  0  0
   17.9990    2.2070   53.1600 N   0  0  0  0  0  0  0  0  0  0  0  0
   22.8330   -3.3030   49.6820 N   0  0  0  0  0  0  0  0  0  0  0  0
   22.7540   -0.3870   50.4570 O   0  0  0  0  0  0  0  0  0  0  0  0
   20.0500   -3.2950   48.8390 O   0  0  0  0  0  0  0  0  0  0  0  0
   19.7250    0.1970   54.4730 O   0  0  0  0  0  0  0  0  0  0  0  0
   19.3210   -2.9530   47.6480 C   0  0  2  0  0  0  0  0  0  0  0  0
   18.0870   -3.8740   47.4910 C   0  0  1  0  0  0  0  0  0  0  0  0
   18.4990   -5.3560   47.2340 C   0  0  2  0  0  0  0  0  0  0  0  0
   19.3770   -5.4310   45.9500 C   0  0  1  0  0  0  0  0  0  0  0  0
   20.6560   -4.5320   46.2130 C   0  0  1  0  0  0  0  0  0  0  0  0
   21.5960   -4.5100   45.0110 C   0  0  0  0  0  0  0  0  0  0  0  0
   20.2080   -3.1170   46.4670 O   0  0  0  0  0  0  0  0  0  0  0  0
   19.7720   -6.8470   45.7020 N   0  0  0  0  0  0  0  0  0  0  0  0
   17.2950   -3.7340   48.6860 O   0  0  0  0  0  0  0  0  0  0  0  0
   17.3250   -6.1200   47.0540 O   0  0  0  0  0  0  0  0  0  0  0  0
   20.8620   -4.2270   43.8490 O   0  0  0  0  0  0  0  0  0  0  0  0
   20.4080    0.2780   55.7070 C   0  0  1  0  0  0  0  0  0  0  0  0
   19.5410    1.1310   56.6880 C   0  0  1  0  0  0  0  0  0  0  0  0
   20.2970    1.2550   58.0430 C   0  0  2  0  0  0  0  0  0  0  0  0
   20.5670   -0.1530   58.6580 C   0  0  1  0  0  0  0  0  0  0  0  0
   21.4320   -1.0250   57.6700 C   0  0  0  0  0  0  0  0  0  0  0  0
   20.6560   -1.1540   56.2940 C   0  0  2  0  0  0  0  0  0  0  0  0
   21.2950   -0.0080   59.9490 N   0  0  0  0  0  0  0  0  0  0  0  0
   21.4730   -1.9770   55.3740 N   0  0  0  0  0  0  0  0  0  0  0  0
   19.3240    2.4480   56.1480 O   0  0  0  0  0  0  0  0  0  0  0  0
   19.4870    2.0260   58.9150 O   0  0  0  0  0  0  0  0  0  0  0  0
   20.5864    1.9866   53.9305 H   0  0  0  0  0  0  0  0  0  0  0  0
   19.5470    2.2004   51.7413 H   0  0  0  0  0  0  0  0  0  0  0  0
   17.8349    0.5502   51.0090 H   0  0  0  0  0  0  0  0  0  0  0  0
   18.1402   -0.4209   52.4000 H   0  0  0  0  0  0  0  0  0  0  0  0
   20.1919    0.3881   50.3221 H   0  0  0  0  0  0  0  0  0  0  0  0
   20.5902   -1.5521   52.6681 H   0  0  0  0  0  0  0  0  0  0  0  0
   22.9728   -1.7394   51.9655 H   0  0  0  0  0  0  0  0  0  0  0  0
   21.3242   -3.3986   51.1448 H   0  0  0  0  0  0  0  0  0  0  0  0
   20.9563   -1.4693   48.8480 H   0  0  0  0  0  0  0  0  0  0  0  0
   24.7444   -4.2198   49.6981 H   0  0  0  0  0  0  0  0  0  0  0  0
   23.7752   -4.5506   51.1138 H   0  0  0  0  0  0  0  0  0  0  0  0
   24.5273   -2.9859   50.9161 H   0  0  0  0  0  0  0  0  0  0  0  0
   17.5846    1.5684   53.8389 H   0  0  0  0  0  0  0  0  0  0  0  0
   17.2907    2.4897   52.4827 H   0  0  0  0  0  0  0  0  0  0  0  0
   23.1515   -2.6119   49.0028 H   0  0  0  0  0  0  0  0  0  0  0  0
   22.0721   -0.0743   49.8421 H   0  0  0  0  0  0  0  0  0  0  0  0
   18.9909   -1.9378   47.7209 H   0  0  0  0  0  0  0  0  0  0  0  0
   17.5149   -3.5854   46.6341 H   0  0  0  0  0  0  0  0  0  0  0  0
   19.0588   -5.7362   48.0628 H   0  0  0  0  0  0  0  0  0  0  0  0
   18.8464   -5.0815   45.0891 H   0  0  0  0  0  0  0  0  0  0  0  0
   21.1774   -4.9452   47.0510 H   0  0  0  0  0  0  0  0  0  0  0  0
   22.0691   -5.4645   44.9105 H   0  0  0  0  0  0  0  0  0  0  0  0
   22.3415   -3.7561   45.1547 H   0  0  0  0  0  0  0  0  0  0  0  0
   20.2809   -7.2046   46.5104 H   0  0  0  0  0  0  0  0  0  0  0  0
   20.3692   -6.8938   44.8764 H   0  0  0  0  0  0  0  0  0  0  0  0
   17.8224   -3.9979   49.4562 H   0  0  0  0  0  0  0  0  0  0  0  0
   16.8233   -5.7694   46.3015 H   0  0  0  0  0  0  0  0  0  0  0  0
   20.1862   -4.9106   43.7189 H   0  0  0  0  0  0  0  0  0  0  0  0
   21.3632    0.7394   55.5672 H   0  0  0  0  0  0  0  0  0  0  0  0
   18.5938    0.6536   56.8289 H   0  0  0  0  0  0  0  0  0  0  0  0
   21.2462    1.7260   57.8941 H   0  0  0  0  0  0  0  0  0  0  0  0
   19.6281   -0.6382   58.8254 H   0  0  0  0  0  0  0  0  0  0  0  0
   21.5864   -1.9974   58.0889 H   0  0  0  0  0  0  0  0  0  0  0  0
   22.3826   -0.5604   57.5104 H   0  0  0  0  0  0  0  0  0  0  0  0
   19.7058   -1.6263   56.4316 H   0  0  0  0  0  0  0  0  0  0  0  0
   22.1891    0.4548   59.7850 H   0  0  0  0  0  0  0  0  0  0  0  0
   21.4585   -0.9304   60.3526 H   0  0  0  0  0  0  0  0  0  0  0  0
   22.3814   -1.5337   55.2371 H   0  0  0  0  0  0  0  0  0  0  0  0
   20.9958   -2.0587   54.4762 H   0  0  0  0  0  0  0  0  0  0  0  0
   20.1782    2.8885   56.0169 H   0  0  0  0  0  0  0  0  0  0  0  0
   18.6323    1.5840   59.0377 H   0  0  0  0  0  0  0  0  0  0  0  0
  1  2  1  0  0  0  0
  1 10  1  0  0  0  0
  1 16  1  0  0  0  0
  1 38  1  1  0  0  0
  2  3  1  0  0  0  0
  2 12  1  0  0  0  0
  2 39  1  6  0  0  0
  3  4  1  0  0  0  0
  3 40  1  0  0  0  0
  3 41  1  0  0  0  0
  4  5  1  0  0  0  0
  4 11  1  0  0  0  0
  4 42  1  6  0  0  0
  5  6  1  0  0  0  0
  5 10  1  0  0  0  0
  5 43  1  1  0  0  0
  6  7  1  0  0  0  0
  6 14  1  0  0  0  0
  6 44  1  1  0  0  0
  7  8  1  0  0  0  0
  7 13  1  0  0  0  0
  7 45  1  1  0  0  0
  8 11  1  0  0  0  0
  8 15  1  0  0  0  0
  8 46  1  6  0  0  0
  9 13  1  0  0  0  0
  9 47  1  0  0  0  0
  9 48  1  0  0  0  0
  9 49  1  0  0  0  0
 12 50  1  0  0  0  0
 12 51  1  0  0  0  0
 13 52  1  0  0  0  0
 14 53  1  0  0  0  0
 15 17  1  0  0  0  0
 16 28  1  0  0  0  0
 17 18  1  0  0  0  0
 17 23  1  0  0  0  0
 17 54  1  1  0  0  0
 18 19  1  0  0  0  0
 18 25  1  0  0  0  0
 18 55  1  6  0  0  0
 19 20  1  0  0  0  0
 19 26  1  0  0  0  0
 19 56  1  1  0  0  0
 20 21  1  0  0  0  0
 20 24  1  0  0  0  0
 20 57  1  6  0  0  0
 21 22  1  0  0  0  0
 21 23  1  0  0  0  0
 21 58  1  1  0  0  0
 22 27  1  0  0  0  0
 22 59  1  0  0  0  0
 22 60  1  0  0  0  0
 24 61  1  0  0  0  0
 24 62  1  0  0  0  0
 25 63  1  0  0  0  0
 26 64  1  0  0  0  0
 27 65  1  0  0  0  0
 28 29  1  0  0  0  0
 28 33  1  0  0  0  0
 28 66  1  6  0  0  0
 29 30  1  0  0  0  0
 29 36  1  0  0  0  0
 29 67  1  1  0  0  0
 30 31  1  0  0  0  0
 30 37  1  0  0  0  0
 30 68  1  6  0  0  0
 31 32  1  0  0  0  0
 31 34  1  0  0  0  0
 31 69  1  1  0  0  0
 32 33  1  0  0  0  0
 32 70  1  0  0  0  0
 32 71  1  0  0  0  0
 33 35  1  0  0  0  0
 33 72  1  1  0  0  0
 34 73  1  0  0  0  0
 34 74  1  0  0  0  0
 35 75  1  0  0  0  0
 35 76  1  0  0  0  0
 36 77  1  0  0  0  0
 37 78  1  0  0  0  0
A    1
CA1
A    2
CA2
A    3
CA3
A    4
CA4
A    5
CA5
A    6
CA6
A    7
CA7
A    8
CA8
A    9
CA9
A   10
OA4
A   11
OA5
A   12
NA2
A   13
NA7
A   14
OA6
A   15
OA8
A   16
OA1
A   17
CB1
A   18
CB2
A   19
CB3
A   20
CB4
A   21
CB5
A   22
CB6
A   23
OB1
A   24
NB4
A   25
OB2
A   26
OB3
A   27
OB6
A   28
CC1
A   29
CC2
A   30
CC3
A   31
CC4
A   32
CC5
A   33
CC6
A   34
NC4
A   35
NC6
A   36
OC2
A   37
OC3
M  END
>  <InstanceId>
2OE8_AM2_B_101

>  <ChemCompId>
AM2

>  <PdbId>
2OE8

>  <ChainId>
B

>  <ResidueNumber>
101

>  <InsertionCode>


>  <Model>
1

>  <AltIds>


>  <MissingHeavyAtoms>
0

>  <ObservedFormula>
C21 N5 O11

>  <Name>
APRAMYCIN

>  <SystematicName>
(2R,3R,4S,5S,6S)-2-[[(2R,3S,4R,4aR,6S,7R,8aS)-7-amino-6-[(1R,2R,3S,4R,6S)-4,6-diamino-2,3-dihydroxy-cyclohexyl]oxy-4-hydroxy-3-methylamino-2,3,4,4a,6,7,8,8a-octahydropyrano[2,3-e]pyran-2-yl]oxy]-5-amino-6-(hydroxymethyl)oxane-3,4-diol

>  <Synonyms>
NEBRAMYCIN II, 4-O-(3ALPHA-AMINO-6ALPHA-((4-AMINO-4-DEOXY-ALPHA-D-GLUCOPYRANOSYL)OXY)-2,3,4,5ABETA,6,7,8,8AALPHA-OCTAHYDRO-8BETA-HYDROXY-7BETA-(METHYLAMINO)PYRANO(3,2-B)PYRAN-2ALPHA-YL)-2-DEOXY-D-STREPTAMINE

>  <Type>
NON-POLYMER

>  <Formula>
C21 H41 N5 O11

>  <MolecularWeight>
539.577

>  <ModifiedDate>
2011-06-04

>  <Parent>


>  <OneLetterCode>


>  <SubcomponentList>


>  <AmbiguousFlag>
N

>  <InChI>
InChI=1S/C21H41N5O11/c1-26-11-14(30)18-8(33-20(11)37-21-16(32)13(29)10(25)9(4-27)34-21)3-7(24)19(36-18)35-17-6(23)2-5(22)12(28)15(17)31/h5-21,26-32H,2-4,22-25H2,1H3/t5-,6+,7-,8+,9-,10-,11+,12+,13+,14-,15-,16-,17-,18+,19+,20-,21-/m1/s1

>  <InChIKey>
XZNUGFQTQHRASN-XQENGBIVSA-N

>  <SMILES>
CN[C@H]1[C@H]([C@@H]2[C@H](C[C@H]([C@H](O2)O[C@@H]3[C@H](C[C@H]([C@@H]([C@H]3O)O)N)N)N)O[C@@H]1O[C@@H]4[C@@H]([C@H]([C@@H]([C@H](O4)CO)N)O)O)O

$$$$
