REMARK  13 active torsions:
REMARK  status: ('A' for Active; 'I' for Inactive)
REMARK    1  A    between atoms: C_2  and  N_1 
REMARK    2  A    between atoms: C_3  and  C_2 
REMARK    3  A    between atoms: C_4  and  C_3 
REMARK    4  A    between atoms: N_5  and  C_4 
REMARK    5  A    between atoms: C_6  and  N_5 
REMARK    6  A    between atoms: C_7  and  C_6 
REMARK    7  A    between atoms: C_8  and  C_7 
REMARK    8  A    between atoms: C_9  and  C_8 
REMARK    9  A    between atoms: N_10  and  C_9 
REMARK   10  A    between atoms: C_11  and  N_10 
REMARK   11  A    between atoms: C_12  and  C_11 
REMARK   12  A    between atoms: C_13  and  C_12 
REMARK   13  A    between atoms: N_14  and  C_13 
ROOT
ATOM      1  C   UNL d   1       0.352  -1.568  -4.863  0.00  0.00     0.032 C 
ENDROOT
BRANCH   1   2
ATOM      2  C   UNL d   1      -0.113  -1.056  -3.497  0.00  0.00     0.269 C 
BRANCH   2   3
ATOM      3  N   UNL d   1      -1.573  -1.026  -3.413  0.00  0.00     0.083 N 
ATOM      4  H   UNL d   1      -1.932  -0.369  -4.107  0.00  0.00     0.315 HD
BRANCH   3   5
ATOM      5  C   UNL d   1      -2.012  -0.600  -2.083  0.00  0.00     0.271 C 
BRANCH   5   6
ATOM      6  C   UNL d   1      -3.538  -0.720  -1.966  0.00  0.00     0.059 C 
BRANCH   6   7
ATOM      7  C   UNL d   1      -4.154   0.434  -1.175  0.00  0.00     0.268 C 
BRANCH   7   8
ATOM      8  N   UNL d   1      -4.333   1.599  -2.034  0.00  0.00     0.078 N 
ATOM      9  H   UNL d   1      -4.866   2.310  -1.536  0.00  0.00     0.312 HD
ATOM     10  H   UNL d   1      -3.424   2.016  -2.234  0.00  0.00     0.312 HD
ENDBRANCH   7   8
ENDBRANCH   6   7
ENDBRANCH   5   6
ENDBRANCH   3   5
ENDBRANCH   2   3
ENDBRANCH   1   2
BRANCH   1  11
ATOM     11  C   UNL d   1      -0.113  -2.999  -5.172  0.00  0.00     0.032 C 
BRANCH  11  12
ATOM     12  C   UNL d   1       0.938  -3.795  -5.952  0.00  0.00     0.269 C 
BRANCH  12  13
ATOM     13  N   UNL d   1       1.957  -4.309  -5.035  0.00  0.00     0.083 N 
ATOM     14  H   UNL d   1       1.568  -5.095  -4.515  0.00  0.00     0.315 HD
BRANCH  13  15
ATOM     15  C   UNL d   1       3.160  -4.738  -5.751  0.00  0.00     0.271 C 
BRANCH  15  16
ATOM     16  C   UNL d   1       4.082  -5.499  -4.792  0.00  0.00     0.059 C 
BRANCH  16  17
ATOM     17  C   UNL d   1       5.411  -5.893  -5.437  0.00  0.00     0.268 C 
BRANCH  17  18
ATOM     18  N   UNL d   1       6.337  -4.766  -5.446  0.00  0.00     0.078 N 
ATOM     19  H   UNL d   1       7.293  -5.114  -5.522  0.00  0.00     0.312 HD
ATOM     20  H   UNL d   1       6.177  -4.201  -6.279  0.00  0.00     0.312 HD
ENDBRANCH  17  18
ENDBRANCH  16  17
ENDBRANCH  15  16
ENDBRANCH  13  15
ENDBRANCH  12  13
ENDBRANCH  11  12
ENDBRANCH   1  11
TORSDOF 13
