@<TRIPOS>MOLECULE
1FUF_SPM_B_98
 40 39 0 0 0
SMALL
GASTEIGER

@<TRIPOS>ATOM
      1 N          -4.3327    1.5993   -2.0341 N.3     1  UNL1       -0.3299
      2 C          -4.1540    0.4340   -1.1747 C.3     1  UNL1       -0.0058
      3 C          -3.5376   -0.7203   -1.9664 C.3     1  UNL1       -0.0281
      4 C          -2.0120   -0.6004   -2.0827 C.3     1  UNL1       -0.0030
      5 N          -1.5733   -1.0257   -3.4133 N.3     1  UNL1       -0.3159
      6 C          -0.1133   -1.0564   -3.4969 C.3     1  UNL1       -0.0041
      7 C           0.3519   -1.5683   -4.8628 C.3     1  UNL1       -0.0393
      8 C          -0.1126   -2.9986   -5.1724 C.3     1  UNL1       -0.0393
      9 C           0.9380   -3.7953   -5.9524 C.3     1  UNL1       -0.0041
     10 N           1.9569   -4.3086   -5.0352 N.3     1  UNL1       -0.3159
     11 C           3.1604   -4.7378   -5.7508 C.3     1  UNL1       -0.0030
     12 C           4.0816   -5.4991   -4.7917 C.3     1  UNL1       -0.0281
     13 C           5.4110   -5.8932   -5.4373 C.3     1  UNL1       -0.0058
     14 N           6.3372   -4.7665   -5.4464 N.3     1  UNL1       -0.3299
     15 H          -4.8658    2.3103   -1.5361 H       1  UNL1        0.1182
     16 H          -3.4238    2.0158   -2.2340 H       1  UNL1        0.1182
     17 H          -5.1309    0.1280   -0.7839 H       1  UNL1        0.0422
     18 H          -3.5309    0.6959   -0.3119 H       1  UNL1        0.0422
     19 H          -4.0149   -0.7883   -2.9533 H       1  UNL1        0.0290
     20 H          -3.7777   -1.6607   -1.4532 H       1  UNL1        0.0290
     21 H          -1.6826    0.4294   -1.9017 H       1  UNL1        0.0424
     22 H          -1.5507   -1.2296   -1.3115 H       1  UNL1        0.0424
     23 H          -1.9318   -0.3692   -4.1071 H       1  UNL1        0.1219
     24 H           0.2870   -0.0454   -3.3507 H       1  UNL1        0.0424
     25 H           0.3085   -1.6915   -2.7090 H       1  UNL1        0.0424
     26 H           1.4475   -1.5098   -4.8851 H       1  UNL1        0.0278
     27 H          -0.0039   -0.8931   -5.6516 H       1  UNL1        0.0278
     28 H          -1.0245   -2.9444   -5.7805 H       1  UNL1        0.0278
     29 H          -0.3899   -3.5351   -4.2564 H       1  UNL1        0.0278
     30 H           0.4455   -4.6351   -6.4578 H       1  UNL1        0.0424
     31 H           1.3821   -3.1629   -6.7312 H       1  UNL1        0.0424
     32 H           1.5679   -5.0952   -4.5154 H       1  UNL1        0.1219
     33 H           3.6775   -3.8562   -6.1461 H       1  UNL1        0.0424
     34 H           2.8957   -5.3830   -6.5966 H       1  UNL1        0.0424
     35 H           3.5785   -6.4180   -4.4648 H       1  UNL1        0.0290
     36 H           4.2657   -4.9050   -3.8866 H       1  UNL1        0.0290
     37 H           5.2592   -6.2620   -6.4582 H       1  UNL1        0.0422
     38 H           5.8594   -6.7128   -4.8641 H       1  UNL1        0.0422
     39 H           7.2927   -5.1138   -5.5225 H       1  UNL1        0.1182
     40 H           6.1771   -4.2012   -6.2794 H       1  UNL1        0.1182
@<TRIPOS>BOND
     1     2     1    1
     2     3     2    1
     3     4     3    1
     4     5     4    1
     5     6     5    1
     6     7     6    1
     7     8     7    1
     8     9     8    1
     9    10     9    1
    10    11    10    1
    11    12    11    1
    12    13    12    1
    13    14    13    1
    14     1    15    1
    15     1    16    1
    16     2    17    1
    17     2    18    1
    18     3    19    1
    19     3    20    1
    20     4    21    1
    21     4    22    1
    22     5    23    1
    23     6    24    1
    24     6    25    1
    25     7    26    1
    26     7    27    1
    27     8    28    1
    28     8    29    1
    29     9    30    1
    30     9    31    1
    31    10    32    1
    32    11    33    1
    33    11    34    1
    34    12    35    1
    35    12    36    1
    36    13    37    1
    37    13    38    1
    38    14    39    1
    39    14    40    1
