REMARK  10 active torsions:
REMARK  status: ('A' for Active; 'I' for Inactive)
REMARK       I    between atoms: N_3  and  C_2 
REMARK    1  A    between atoms: C_4  and  C_2 
REMARK    2  A    between atoms: N_6  and  C_5 
REMARK    3  A    between atoms: C_10  and  N_7 
REMARK    4  A    between atoms: O_22  and  C_11 
REMARK    5  A    between atoms: O_13  and  C_12 
REMARK    6  A    between atoms: C_16  and  C_14 
REMARK    7  A    between atoms: O_17  and  C_16 
REMARK    8  A    between atoms: P_18  and  O_17 
REMARK    9  A    between atoms: O_20  and  P_18 
REMARK   10  A    between atoms: O_21  and  P_18 
ROOT
ATOM      1  C   UNL d   1       0.631  -1.589  -0.541  0.00  0.00     0.262 C 
ATOM      2  C   UNL d   1       0.041  -1.362   0.845  0.00  0.00     0.198 C 
ATOM      3  C   UNL d   1      -1.336  -1.973   0.669  0.00  0.00     0.182 C 
ATOM      4  C   UNL d   1      -1.690  -1.591  -0.772  0.00  0.00     0.180 C 
ATOM      5  O   UNL d   1      -0.441  -1.294  -1.448  0.00  0.00    -0.353 OA
ENDROOT
BRANCH   1   6
ATOM      6  N   UNL d   1       1.791  -0.784  -0.874  0.00  0.00    -0.300 N 
ATOM      7  C   UNL d   1       1.947   0.580  -0.819  0.00  0.00     0.118 C 
ATOM      8  C   UNL d   1       3.318   0.781  -0.781  0.00  0.00     0.163 C 
ATOM      9  N   UNL d   1       3.979  -0.424  -0.871  0.00  0.00    -0.235 NA
ATOM     10  C   UNL d   1       3.038  -1.309  -1.098  0.00  0.00     0.214 C 
BRANCH   7  11
ATOM     11  N   UNL d   1       0.906   1.439  -0.766  0.00  0.00    -0.286 NA
ATOM     12  H   UNL d   1       0.936   2.142  -0.029  0.00  0.00     0.125 HD
ATOM     13  H   UNL d   1      -0.029   1.043  -0.813  0.00  0.00     0.125 HD
ENDBRANCH   7  11
BRANCH   8  14
ATOM     14  C   UNL d   1       4.054   2.005  -0.531  0.00  0.00     0.271 C 
ATOM     15  O   UNL d   1       5.183   1.993  -0.046  0.00  0.00    -0.266 OA
ATOM     16  N   UNL d   1       3.382   3.164  -0.850  0.00  0.00    -0.365 N 
ATOM     17  H   UNL d   1       2.752   3.558  -0.154  0.00  0.00     0.159 HD
ATOM     18  H   UNL d   1       3.066   3.303  -1.806  0.00  0.00     0.159 HD
ENDBRANCH   8  14
ENDBRANCH   1   6
BRANCH   2  19
ATOM     19  O   UNL d   1       0.800  -1.974   1.866  0.00  0.00    -0.388 OA
ATOM     20  H   UNL d   1       1.591  -1.425   2.006  0.00  0.00     0.210 HD
ENDBRANCH   2  19
BRANCH   3  21
ATOM     21  O   UNL d   1      -1.242  -3.396   0.762  0.00  0.00    -0.390 OA
ATOM     22  H   UNL d   1      -2.129  -3.754   0.585  0.00  0.00     0.210 HD
ENDBRANCH   3  21
BRANCH   4  23
ATOM     23  C   UNL d   1      -2.583  -0.359  -0.847  0.00  0.00     0.215 C 
BRANCH  23  24
ATOM     24  O   UNL d   1      -2.997  -0.177  -2.196  0.00  0.00    -0.294 OA
BRANCH  24  25
ATOM     25  P   UNL d   1      -4.146   0.918  -2.510  0.00  0.00     0.390 P 
ATOM     26  O   UNL d   1      -3.958   2.260  -1.864  0.00  0.00    -0.632 OA
BRANCH  25  27
ATOM     27  O   UNL d   1      -5.515   0.152  -2.116  0.00  0.00    -0.307 OA
ATOM     28  H   UNL d   1      -6.215   0.041  -2.795  0.00  0.00     0.222 HD
ENDBRANCH  25  27
BRANCH  25  29
ATOM     29  O   UNL d   1      -4.194   0.944  -4.126  0.00  0.00    -0.307 OA
ATOM     30  H   UNL d   1      -4.803   1.567  -4.576  0.00  0.00     0.222 HD
ENDBRANCH  25  29
ENDBRANCH  24  25
ENDBRANCH  23  24
ENDBRANCH   4  23
TORSDOF 10
