@<TRIPOS>MOLECULE
4ZNP_AMZ_A_101
 37 38 0 0 0
SMALL
GASTEIGER

@<TRIPOS>ATOM
      1 O           5.1834    1.9928   -0.0464 O.2     1  UNL1       -0.2686
      2 C           4.0543    2.0049   -0.5308 C.2     1  UNL1        0.2632
      3 N           3.3816    3.1645   -0.8497 N.am    1  UNL1       -0.3240
      4 C           3.3180    0.7812   -0.7806 C.ar    1  UNL1        0.1644
      5 C           1.9473    0.5803   -0.8186 C.ar    1  UNL1        0.1306
      6 N           0.9059    1.4389   -0.7657 N.pl3   1  UNL1       -0.3425
      7 N           1.7911   -0.7840   -0.8744 N.ar    1  UNL1       -0.2892
      8 C           3.0383   -1.3093   -1.0978 C.ar    1  UNL1        0.1003
      9 N           3.9792   -0.4244   -0.8708 N.ar    1  UNL1       -0.2291
     10 C           0.6314   -1.5891   -0.5408 C.3     1  UNL1        0.1664
     11 H           0.9112   -2.6429   -0.6830 H       1  UNL1        0.0866
     12 C           0.0409   -1.3616    0.8453 C.3     1  UNL1        0.1285
     13 H          -0.0661   -0.2960    1.0770 H       1  UNL1        0.0665
     14 C          -1.3360   -1.9728    0.6687 C.3     1  UNL1        0.1135
     15 H          -2.0550   -1.6398    1.4218 H       1  UNL1        0.0647
     16 O          -1.2422   -3.3956    0.7621 O.3     1  UNL1       -0.3864
     17 C          -1.6898   -1.5908   -0.7722 C.3     1  UNL1        0.1134
     18 H          -2.1607   -2.4276   -1.3013 H       1  UNL1        0.0647
     19 O          -0.4413   -1.2940   -1.4477 O.3     1  UNL1       -0.3456
     20 C          -2.5835   -0.3595   -0.8467 C.3     1  UNL1        0.0878
     21 O          -2.9973   -0.1768   -2.1964 O.3     1  UNL1       -0.2841
     22 P          -4.1463    0.9184   -2.5095 P.3     1  UNL1        0.4724
     23 O          -3.9582    2.2600   -1.8639 O.2     1  UNL1       -0.2275
     24 O          -5.5154    0.1519   -2.1157 O.3     1  UNL1       -0.3026
     25 O          -4.1935    0.9437   -4.1263 O.3     1  UNL1       -0.3026
     26 O           0.7998   -1.9735    1.8662 O.3     1  UNL1       -0.3847
     27 H           2.7518    3.5583   -0.1545 H       1  UNL1        0.1453
     28 H           3.0660    3.3034   -1.8057 H       1  UNL1        0.1453
     29 H           0.9356    2.1416   -0.0292 H       1  UNL1        0.1437
     30 H          -0.0291    1.0427   -0.8126 H       1  UNL1        0.1437
     31 H           3.1907   -2.3369   -1.4005 H       1  UNL1        0.1030
     32 H          -2.1288   -3.7543    0.5850 H       1  UNL1        0.2100
     33 H          -2.0629    0.5420   -0.5121 H       1  UNL1        0.0592
     34 H          -3.4718   -0.4937   -0.2203 H       1  UNL1        0.0592
     35 H          -6.2146    0.0409   -2.7946 H       1  UNL1        0.2220
     36 H          -4.8035    1.5668   -4.5761 H       1  UNL1        0.2220
     37 H           1.5911   -1.4246    2.0055 H       1  UNL1        0.2101
@<TRIPOS>BOND
     1     2     1    2
     2     3     2   am
     3     4     2    1
     4     5     4   ar
     5     6     5    1
     6     7     5   ar
     7     8     7   ar
     8     9     8   ar
     9     9     4   ar
    10    10     7    1
    11    10    11    1
    12    12    10    1
    13    12    13    1
    14    14    12    1
    15    14    15    1
    16    16    14    1
    17    17    14    1
    18    17    18    1
    19    19    17    1
    20    19    10    1
    21    20    17    1
    22    21    20    1
    23    22    21    1
    24    23    22    2
    25    24    22    1
    26    25    22    1
    27    26    12    1
    28     3    27    1
    29     3    28    1
    30     6    29    1
    31     6    30    1
    32     8    31    1
    33    16    32    1
    34    20    33    1
    35    20    34    1
    36    24    35    1
    37    25    36    1
    38    26    37    1
