@<TRIPOS>MOLECULE
1XPF_SPM_A_108
 40 39 0 0 0
SMALL
GASTEIGER

@<TRIPOS>ATOM
      1 N           0.9467    0.0882   -0.0062 N.3     1  UNL1       -0.3299
      2 C           2.4052    0.0956   -0.0052 C.3     1  UNL1       -0.0058
      3 C           2.9484   -0.8416    1.0726 C.3     1  UNL1       -0.0281
      4 C           4.4783   -0.8375    1.0659 C.3     1  UNL1       -0.0030
      5 N           4.9887   -1.7273    2.1099 N.3     1  UNL1       -0.3159
      6 C           6.4515   -1.7430    2.1124 C.3     1  UNL1       -0.0041
      7 C           6.9547   -2.6893    3.2023 C.3     1  UNL1       -0.0393
      8 C           8.4841   -2.7152    3.2428 C.3     1  UNL1       -0.0393
      9 C           8.9876   -3.6620    4.3321 C.3     1  UNL1       -0.0041
     10 N          10.4507   -3.6752    4.3364 N.3     1  UNL1       -0.3159
     11 C          10.9608   -4.5675    5.3780 C.3     1  UNL1       -0.0030
     12 C          12.4908   -4.5605    5.3743 C.3     1  UNL1       -0.0281
     13 C          13.0339   -5.5016    6.4487 C.3     1  UNL1       -0.0058
     14 N          14.4924   -5.4903    6.4537 N.3     1  UNL1       -0.3299
     15 H           0.6051    0.7672   -0.6852 H       1  UNL1        0.1182
     16 H           0.6024    0.3965    0.9028 H       1  UNL1        0.1182
     17 H           2.7619    1.1170    0.1671 H       1  UNL1        0.0422
     18 H           2.7620   -0.2197   -0.9916 H       1  UNL1        0.0422
     19 H           2.5779   -1.8604    0.8993 H       1  UNL1        0.0290
     20 H           2.5817   -0.5271    2.0585 H       1  UNL1        0.0290
     21 H           4.8378    0.1835    1.2410 H       1  UNL1        0.0424
     22 H           4.8403   -1.1614    0.0827 H       1  UNL1        0.0424
     23 H           4.6350   -2.6718    1.9550 H       1  UNL1        0.1219
     24 H           6.8347   -0.7337    2.3033 H       1  UNL1        0.0424
     25 H           6.8302   -2.0728    1.1374 H       1  UNL1        0.0424
     26 H           6.5770   -3.7033    3.0196 H       1  UNL1        0.0278
     27 H           6.5683   -2.3712    4.1789 H       1  UNL1        0.0278
     28 H           8.8618   -1.7011    3.4266 H       1  UNL1        0.0278
     29 H           8.8709   -3.0324    2.2662 H       1  UNL1        0.0278
     30 H           8.6061   -4.6716    4.1389 H       1  UNL1        0.0424
     31 H           8.6070   -3.3344    5.3069 H       1  UNL1        0.0424
     32 H          10.8026   -2.7304    4.4948 H       1  UNL1        0.1219
     33 H          10.6036   -5.5886    5.1988 H       1  UNL1        0.0424
     34 H          10.5964   -4.2478    6.3618 H       1  UNL1        0.0424
     35 H          12.8590   -3.5418    5.5530 H       1  UNL1        0.0290
     36 H          12.8600   -4.8698    4.3877 H       1  UNL1        0.0290
     37 H          12.6805   -6.5232    6.2703 H       1  UNL1        0.0422
     38 H          12.6736   -5.1924    7.4359 H       1  UNL1        0.0422
     39 H          14.8399   -5.7928    5.5440 H       1  UNL1        0.1182
     40 H          14.8341   -6.1719    7.1301 H       1  UNL1        0.1182
@<TRIPOS>BOND
     1     1     2    1
     2     1    15    1
     3     1    16    1
     4     2     3    1
     5     2    17    1
     6     2    18    1
     7     3     4    1
     8     3    19    1
     9     3    20    1
    10     4     5    1
    11     4    21    1
    12     4    22    1
    13     5     6    1
    14     5    23    1
    15     6     7    1
    16     6    24    1
    17     6    25    1
    18     7     8    1
    19     7    26    1
    20     7    27    1
    21     8     9    1
    22     8    28    1
    23     8    29    1
    24     9    10    1
    25     9    30    1
    26     9    31    1
    27    10    11    1
    28    10    32    1
    29    11    12    1
    30    11    33    1
    31    11    34    1
    32    12    13    1
    33    12    35    1
    34    12    36    1
    35    13    14    1
    36    13    37    1
    37    13    38    1
    38    14    39    1
    39    14    40    1
