REMARK  7 active torsions:
REMARK  status: ('A' for Active; 'I' for Inactive)
REMARK    1  A    between atoms: N_17  and  C_19 
REMARK    2  A    between atoms: C_19  and  C_20 
REMARK    3  A    between atoms: C_20  and  C_22 
REMARK    4  A    between atoms: C_22  and  C_24 
REMARK    5  A    between atoms: C_24  and  C_26 
REMARK    6  A    between atoms: C_26  and  O_27 
REMARK    7  A    between atoms: O_27  and  P_28 
ROOT
ATOM      1  N   UNL d   1      28.280  34.760  18.675  0.00  0.00    -0.172 NA
ATOM      2  C   UNL d   1      28.300  33.444  18.260  0.00  0.00     0.373 A 
ATOM      3  O   UNL d   1      28.536  33.170  17.080  0.00  0.00    -0.242 OA
ATOM      4  N   UNL d   1      28.045  32.438  19.170  0.00  0.00    -0.150 NA
ATOM      5  C   UNL d   1      27.771  32.743  20.490  0.00  0.00     0.304 A 
ATOM      6  O   UNL d   1      27.551  31.856  21.313  0.00  0.00    -0.263 OA
ATOM      7  C   UNL d   1      27.752  34.057  20.909  0.00  0.00     0.173 A 
ATOM      8  N   UNL d   1      27.481  34.343  22.233  0.00  0.00    -0.236 NA
ATOM      9  C   UNL d   1      27.465  35.656  22.657  0.00  0.00     0.097 A 
ATOM     10  C   UNL d   1      27.190  35.947  23.991  0.00  0.00     0.016 A 
ATOM     11  C   UNL d   1      27.164  37.268  24.427  0.00  0.00    -0.024 A 
ATOM     12  C   UNL d   1      26.876  37.564  25.873  0.00  0.00     0.031 C 
ATOM     13  C   UNL d   1      27.419  38.302  23.519  0.00  0.00    -0.024 A 
ATOM     14  C   UNL d   1      27.413  39.736  23.962  0.00  0.00     0.031 C 
ATOM     15  C   UNL d   1      27.694  38.007  22.187  0.00  0.00     0.014 A 
ATOM     16  C   UNL d   1      27.718  36.686  21.746  0.00  0.00     0.079 A 
ATOM     17  N   UNL d   1      27.983  36.391  20.414  0.00  0.00    -0.308 N 
ATOM     18  C   UNL d   1      28.010  35.074  19.997  0.00  0.00     0.171 A 
ENDROOT
BRANCH  17  19
ATOM     19  C   UNL d   1      28.372  37.475  19.452  0.00  0.00     0.143 C 
BRANCH  19  20
ATOM     20  C   UNL d   1      27.139  37.961  18.707  0.00  0.00     0.207 C 
ATOM     21  O   UNL d   1      26.781  37.006  17.733  0.00  0.00    -0.218 OA
BRANCH  20  22
ATOM     22  C   UNL d   1      27.352  39.329  18.044  0.00  0.00     0.217 C 
ATOM     23  O   UNL d   1      28.213  39.228  16.930  0.00  0.00    -0.218 OA
BRANCH  22  24
ATOM     24  C   UNL d   1      27.873  40.402  19.000  0.00  0.00     0.215 C 
ATOM     25  O   UNL d   1      27.277  40.260  20.272  0.00  0.00    -0.218 OA
BRANCH  24  26
ATOM     26  C   UNL d   1      27.550  41.789  18.464  0.00  0.00     0.191 C 
BRANCH  26  27
ATOM     27  O   UNL d   1      26.471  41.696  17.566  0.00  0.00    -0.261 OA
BRANCH  27  28
ATOM     28  P   UNL d   1      26.161  42.907  16.566  0.00  0.00     0.423 P 
ATOM     29  O   UNL d   1      24.669  42.993  16.325  0.00  0.00    -0.617 OA
ATOM     30  O   UNL d   1      26.837  42.746  15.231  0.00  0.00    -0.617 OA
ATOM     31  O   UNL d   1      26.653  44.163  17.231  0.00  0.00    -0.617 OA
ENDBRANCH  27  28
ENDBRANCH  26  27
ENDBRANCH  24  26
ENDBRANCH  22  24
ENDBRANCH  20  22
ENDBRANCH  19  20
ENDBRANCH  17  19
TORSDOF 7
