3F2Q_FMN_X_200
 OpenBabel10091713573D
Coordinates from PDB:3F2Q:X:200 Model:1 without hydrogens
 52 54  0  0  1  0  0  0  0  0999 V2000
   28.2800   34.7600   18.6750 N   0  0  0  0  0  0  0  0  0  0  0  0
   28.3000   33.4440   18.2600 C   0  0  0  0  0  0  0  0  0  0  0  0
   28.5360   33.1700   17.0800 O   0  0  0  0  0  0  0  0  0  0  0  0
   28.0450   32.4380   19.1700 N   0  0  0  0  0  0  0  0  0  0  0  0
   27.7710   32.7430   20.4900 C   0  0  0  0  0  0  0  0  0  0  0  0
   27.5510   31.8560   21.3130 O   0  0  0  0  0  0  0  0  0  0  0  0
   27.7520   34.0570   20.9090 C   0  0  0  0  0  0  0  0  0  0  0  0
   27.4810   34.3430   22.2330 N   0  0  0  0  0  0  0  0  0  0  0  0
   27.4650   35.6560   22.6570 C   0  0  0  0  0  0  0  0  0  0  0  0
   27.1900   35.9470   23.9910 C   0  0  0  0  0  0  0  0  0  0  0  0
   27.1640   37.2680   24.4270 C   0  0  0  0  0  0  0  0  0  0  0  0
   26.8760   37.5640   25.8730 C   0  0  0  0  0  0  0  0  0  0  0  0
   27.4190   38.3020   23.5190 C   0  0  0  0  0  0  0  0  0  0  0  0
   27.4130   39.7360   23.9620 C   0  0  0  0  0  0  0  0  0  0  0  0
   27.6940   38.0070   22.1870 C   0  0  0  0  0  0  0  0  0  0  0  0
   27.7180   36.6860   21.7460 C   0  0  0  0  0  0  0  0  0  0  0  0
   27.9830   36.3910   20.4140 N   0  0  0  0  0  0  0  0  0  0  0  0
   28.0100   35.0740   19.9970 C   0  0  0  0  0  0  0  0  0  0  0  0
   28.3720   37.4750   19.4520 C   0  0  0  0  0  0  0  0  0  0  0  0
   27.1390   37.9610   18.7070 C   0  0  2  0  0  0  0  0  0  0  0  0
   26.7810   37.0060   17.7330 O   0  0  0  0  0  0  0  0  0  0  0  0
   27.3520   39.3290   18.0440 C   0  0  2  0  0  0  0  0  0  0  0  0
   28.2130   39.2280   16.9300 O   0  0  0  0  0  0  0  0  0  0  0  0
   27.8730   40.4020   19.0000 C   0  0  2  0  0  0  0  0  0  0  0  0
   27.2770   40.2600   20.2720 O   0  0  0  0  0  0  0  0  0  0  0  0
   27.5500   41.7890   18.4640 C   0  0  0  0  0  0  0  0  0  0  0  0
   26.4710   41.6960   17.5660 O   0  0  0  0  0  0  0  0  0  0  0  0
   26.1610   42.9070   16.5660 P   0  0  0  0  0  0  0  0  0  0  0  0
   24.6690   42.9930   16.3250 O   0  0  0  0  0  0  0  0  0  0  0  0
   26.8370   42.7460   15.2310 O   0  0  0  0  0  0  0  0  0  0  0  0
   26.6530   44.1630   17.2310 O   0  0  0  0  0  0  0  0  0  0  0  0
   28.0584   31.4981   18.8773 H   0  0  0  0  0  0  0  0  0  0  0  0
   27.0051   35.1811   24.6575 H   0  0  0  0  0  0  0  0  0  0  0  0
   26.7091   36.6469   26.3984 H   0  0  0  0  0  0  0  0  0  0  0  0
   26.0038   38.1797   25.9442 H   0  0  0  0  0  0  0  0  0  0  0  0
   27.7102   38.0760   26.3053 H   0  0  0  0  0  0  0  0  0  0  0  0
   27.1858   39.7857   25.0064 H   0  0  0  0  0  0  0  0  0  0  0  0
   26.6730   40.2768   23.4099 H   0  0  0  0  0  0  0  0  0  0  0  0
   28.3760   40.1678   23.7856 H   0  0  0  0  0  0  0  0  0  0  0  0
   27.8815   38.7727   21.5210 H   0  0  0  0  0  0  0  0  0  0  0  0
   29.0834   37.0909   18.7511 H   0  0  0  0  0  0  0  0  0  0  0  0
   28.8061   38.2906   19.9917 H   0  0  0  0  0  0  0  0  0  0  0  0
   26.3522   38.0805   19.4222 H   0  0  0  0  0  0  0  0  0  0  0  0
   27.5039   36.9098   17.0934 H   0  0  0  0  0  0  0  0  0  0  0  0
   26.3801   39.6411   17.7231 H   0  0  0  0  0  0  0  0  0  0  0  0
   29.0924   38.9449   17.2257 H   0  0  0  0  0  0  0  0  0  0  0  0
   28.9331   40.2835   19.0834 H   0  0  0  0  0  0  0  0  0  0  0  0
   26.3163   40.3680   20.1928 H   0  0  0  0  0  0  0  0  0  0  0  0
   28.4049   42.1852   17.9570 H   0  0  0  0  0  0  0  0  0  0  0  0
   27.2894   42.4369   19.2747 H   0  0  0  0  0  0  0  0  0  0  0  0
   26.5189   41.9357   14.8031 H   0  0  0  0  0  0  0  0  0  0  0  0
   26.2166   44.2656   18.0912 H   0  0  0  0  0  0  0  0  0  0  0  0
  1  2  1  0  0  0  0
  1 18  2  0  0  0  0
  2  3  2  0  0  0  0
  2  4  1  0  0  0  0
  4  5  1  0  0  0  0
  4 32  1  0  0  0  0
  5  6  2  0  0  0  0
  5  7  1  0  0  0  0
  7  8  2  0  0  0  0
  7 18  1  0  0  0  0
  8  9  1  0  0  0  0
  9 10  2  0  0  0  0
  9 16  1  0  0  0  0
 10 11  1  0  0  0  0
 10 33  1  0  0  0  0
 11 12  1  0  0  0  0
 11 13  2  0  0  0  0
 12 34  1  0  0  0  0
 12 35  1  0  0  0  0
 12 36  1  0  0  0  0
 13 14  1  0  0  0  0
 13 15  1  0  0  0  0
 14 37  1  0  0  0  0
 14 38  1  0  0  0  0
 14 39  1  0  0  0  0
 15 16  2  0  0  0  0
 15 40  1  0  0  0  0
 16 17  1  0  0  0  0
 17 18  1  0  0  0  0
 17 19  1  0  0  0  0
 19 20  1  0  0  0  0
 19 41  1  0  0  0  0
 19 42  1  0  0  0  0
 20 21  1  0  0  0  0
 20 22  1  0  0  0  0
 20 43  1  1  0  0  0
 21 44  1  0  0  0  0
 22 23  1  0  0  0  0
 22 24  1  0  0  0  0
 22 45  1  6  0  0  0
 23 46  1  0  0  0  0
 24 25  1  0  0  0  0
 24 26  1  0  0  0  0
 24 47  1  1  0  0  0
 25 48  1  0  0  0  0
 26 27  1  0  0  0  0
 26 49  1  0  0  0  0
 26 50  1  0  0  0  0
 27 28  1  0  0  0  0
 28 29  2  0  0  0  0
 28 30  1  0  0  0  0
 28 31  1  0  0  0  0
 30 51  1  0  0  0  0
 31 52  1  0  0  0  0
M  END
$$$$
