@<TRIPOS>MOLECULE
3F2Q_FMN_X_200
 31 33 0 0 0
SMALL
GASTEIGER
****
Coordinates from PDB:3F2Q:X:200 Model:1 without hydrogens
@<TRIPOS>ATOM
      1 N          28.2800   34.7600   18.6750 N.ar    1  UNL1       -0.1716
      2 C          28.3000   33.4440   18.2600 C.ar    1  UNL1        0.3728
      3 O          28.5360   33.1700   17.0800 O.2     1  UNL1       -0.2425
      4 N          28.0450   32.4380   19.1700 N.ar    1  UNL1       -0.1503
      5 C          27.7710   32.7430   20.4900 C.ar    1  UNL1        0.3037
      6 O          27.5510   31.8560   21.3130 O.2     1  UNL1       -0.2633
      7 C          27.7520   34.0570   20.9090 C.ar    1  UNL1        0.1732
      8 N          27.4810   34.3430   22.2330 N.ar    1  UNL1       -0.2361
      9 C          27.4650   35.6560   22.6570 C.ar    1  UNL1        0.0970
     10 C          27.1900   35.9470   23.9910 C.ar    1  UNL1        0.0160
     11 C          27.1640   37.2680   24.4270 C.ar    1  UNL1       -0.0242
     12 C          26.8760   37.5640   25.8730 C.3     1  UNL1        0.0307
     13 C          27.4190   38.3020   23.5190 C.ar    1  UNL1       -0.0243
     14 C          27.4130   39.7360   23.9620 C.3     1  UNL1        0.0307
     15 C          27.6940   38.0070   22.1870 C.ar    1  UNL1        0.0142
     16 C          27.7180   36.6860   21.7460 C.ar    1  UNL1        0.0786
     17 N          27.9830   36.3910   20.4140 N.ar    1  UNL1       -0.3073
     18 C          28.0100   35.0740   19.9970 C.ar    1  UNL1        0.1713
     19 C          28.3720   37.4750   19.4520 C.3     1  UNL1        0.1430
     20 C          27.1390   37.9610   18.7070 C.3     1  UNL1        0.2072
     21 O          26.7810   37.0060   17.7330 O.3     1  UNL1       -0.2182
     22 C          27.3520   39.3290   18.0440 C.3     1  UNL1        0.2167
     23 O          28.2130   39.2280   16.9300 O.3     1  UNL1       -0.2175
     24 C          27.8730   40.4020   19.0000 C.3     1  UNL1        0.2147
     25 O          27.2770   40.2600   20.2720 O.3     1  UNL1       -0.2176
     26 C          27.5500   41.7890   18.4640 C.3     1  UNL1        0.1892
     27 O          26.4710   41.6960   17.5660 O.3     1  UNL1       -0.2674
     28 P          26.1610   42.9070   16.5660 P.3     1  UNL1        0.5327
     29 O          24.6690   42.9930   16.3250 O.2     1  UNL1       -0.2224
     30 O          26.8370   42.7460   15.2310 O.3     1  UNL1       -0.1145
     31 O          26.6530   44.1630   17.2310 O.3     1  UNL1       -0.1145
@<TRIPOS>BOND
     1     1     2   ar
     2     1    18   ar
     3     2     3    2
     4     2     4   ar
     5     4     5   ar
     6     5     6    2
     7     5     7   ar
     8     7     8   ar
     9     7    18   ar
    10     8     9   ar
    11     9    10   ar
    12     9    16   ar
    13    10    11   ar
    14    11    12    1
    15    11    13   ar
    16    13    14    1
    17    13    15   ar
    18    15    16   ar
    19    16    17   ar
    20    17    18   ar
    21    17    19    1
    22    19    20    1
    23    20    21    1
    24    20    22    1
    25    22    23    1
    26    22    24    1
    27    24    25    1
    28    24    26    1
    29    26    27    1
    30    27    28    1
    31    28    29    2
    32    28    30    1
    33    28    31    1
