3F2Q_FMN_X_200
 OpenBabel10091713573D
Coordinates from PDB:3F2Q:X:200 Model:1 without hydrogens
 31 33  0  0  0  0  0  0  0  0999 V2000
   28.2800   34.7600   18.6750 N   0  0  0  0  0  0  0  0  0  0  0  0
   28.3000   33.4440   18.2600 C   0  0  0  0  0  0  0  0  0  0  0  0
   28.5360   33.1700   17.0800 O   0  0  0  0  0  0  0  0  0  0  0  0
   28.0450   32.4380   19.1700 N   0  0  0  0  0  0  0  0  0  0  0  0
   27.7710   32.7430   20.4900 C   0  0  0  0  0  0  0  0  0  0  0  0
   27.5510   31.8560   21.3130 O   0  0  0  0  0  0  0  0  0  0  0  0
   27.7520   34.0570   20.9090 C   0  0  0  0  0  0  0  0  0  0  0  0
   27.4810   34.3430   22.2330 N   0  0  0  0  0  0  0  0  0  0  0  0
   27.4650   35.6560   22.6570 C   0  0  0  0  0  0  0  0  0  0  0  0
   27.1900   35.9470   23.9910 C   0  0  0  0  0  0  0  0  0  0  0  0
   27.1640   37.2680   24.4270 C   0  0  0  0  0  0  0  0  0  0  0  0
   26.8760   37.5640   25.8730 C   0  0  0  0  0  0  0  0  0  0  0  0
   27.4190   38.3020   23.5190 C   0  0  0  0  0  0  0  0  0  0  0  0
   27.4130   39.7360   23.9620 C   0  0  0  0  0  0  0  0  0  0  0  0
   27.6940   38.0070   22.1870 C   0  0  0  0  0  0  0  0  0  0  0  0
   27.7180   36.6860   21.7460 C   0  0  0  0  0  0  0  0  0  0  0  0
   27.9830   36.3910   20.4140 N   0  0  0  0  0  0  0  0  0  0  0  0
   28.0100   35.0740   19.9970 C   0  0  0  0  0  0  0  0  0  0  0  0
   28.3720   37.4750   19.4520 C   0  0  0  0  0  0  0  0  0  0  0  0
   27.1390   37.9610   18.7070 C   0  0  2  0  0  0  0  0  0  0  0  0
   26.7810   37.0060   17.7330 O   0  0  0  0  0  0  0  0  0  0  0  0
   27.3520   39.3290   18.0440 C   0  0  2  0  0  0  0  0  0  0  0  0
   28.2130   39.2280   16.9300 O   0  0  0  0  0  0  0  0  0  0  0  0
   27.8730   40.4020   19.0000 C   0  0  2  0  0  0  0  0  0  0  0  0
   27.2770   40.2600   20.2720 O   0  0  0  0  0  0  0  0  0  0  0  0
   27.5500   41.7890   18.4640 C   0  0  0  0  0  0  0  0  0  0  0  0
   26.4710   41.6960   17.5660 O   0  0  0  0  0  0  0  0  0  0  0  0
   26.1610   42.9070   16.5660 P   0  0  0  0  0  0  0  0  0  0  0  0
   24.6690   42.9930   16.3250 O   0  0  0  0  0  0  0  0  0  0  0  0
   26.8370   42.7460   15.2310 O   0  0  0  0  0  0  0  0  0  0  0  0
   26.6530   44.1630   17.2310 O   0  0  0  0  0  0  0  0  0  0  0  0
  1  2  1  0  0  0  0
  1 18  2  0  0  0  0
  2  3  2  0  0  0  0
  2  4  1  0  0  0  0
  4  5  1  0  0  0  0
  5  6  2  0  0  0  0
  5  7  1  0  0  0  0
  7  8  2  0  0  0  0
  7 18  1  0  0  0  0
  8  9  1  0  0  0  0
  9 10  2  0  0  0  0
  9 16  1  0  0  0  0
 10 11  1  0  0  0  0
 11 12  1  0  0  0  0
 11 13  2  0  0  0  0
 13 14  1  0  0  0  0
 13 15  1  0  0  0  0
 15 16  2  0  0  0  0
 16 17  1  0  0  0  0
 17 18  1  0  0  0  0
 17 19  1  0  0  0  0
 19 20  1  0  0  0  0
 20 21  1  6  0  0  0
 20 22  1  0  0  0  0
 22 23  1  6  0  0  0
 22 24  1  0  0  0  0
 24 25  1  1  0  0  0
 24 26  1  0  0  0  0
 26 27  1  0  0  0  0
 27 28  1  0  0  0  0
 28 29  2  0  0  0  0
 28 30  1  0  0  0  0
 28 31  1  0  0  0  0
A    1
N1
A    2
C2
A    3
O2
A    4
N3
A    5
C4
A    6
O4
A    7
C4A
A    8
N5
A    9
C5A
A   10
C6
A   11
C7
A   12
C7M
A   13
C8
A   14
C8M
A   15
C9
A   16
C9A
A   17
N10
A   18
C10
A   19
C1'
A   20
C2'
A   21
O2'
A   22
C3'
A   23
O3'
A   24
C4'
A   25
O4'
A   26
C5'
A   27
O5'
A   28
P
A   29
O1P
A   30
O2P
A   31
O3P
M  END
>  <InstanceId>
3F2Q_FMN_X_200

>  <ChemCompId>
FMN

>  <PdbId>
3F2Q

>  <ChainId>
X

>  <ResidueNumber>
200

>  <InsertionCode>


>  <Model>
1

>  <AltIds>


>  <MissingHeavyAtoms>
0

>  <ObservedFormula>
C17 N4 O9 P

>  <Name>
FLAVIN MONONUCLEOTIDE

>  <SystematicName>
[(2R,3S,4S)-5-[7,8-dimethyl-2,4-bis(oxidanylidene)benzo[g]pteridin-10-yl]-2,3,4-tris(oxidanyl)pentyl] dihydrogen phosphate

>  <Synonyms>
RIBOFLAVIN MONOPHOSPHATE

>  <Type>
NON-POLYMER

>  <Formula>
C17 H21 N4 O9 P

>  <MolecularWeight>
456.344

>  <ModifiedDate>
2016-02-17

>  <Parent>


>  <OneLetterCode>


>  <SubcomponentList>


>  <AmbiguousFlag>
N

>  <InChI>
InChI=1S/C17H21N4O9P/c1-7-3-9-10(4-8(7)2)21(15-13(18-9)16(25)20-17(26)19-15)5-11(22)14(24)12(23)6-30-31(27,28)29/h3-4,11-12,14,22-24H,5-6H2,1-2H3,(H,20,25,26)(H2,27,28,29)/t11-,12+,14-/m0/s1

>  <InChIKey>
FVTCRASFADXXNN-SCRDCRAPSA-N

>  <SMILES>
Cc1cc2c(cc1C)N(C3=NC(=O)NC(=O)C3=N2)C[C@@H]([C@@H]([C@@H](COP(=O)(O)O)O)O)O

$$$$
