2MXS_PAR_A_101
  1228              3D

 87 90  0  0  0  0  0  0  0  0999 V2000
    2.6346    1.3313   -2.3142 C   0  0  0  0  0  0  0  0  0  0  0  0
    3.1099    2.2762   -2.3892 H   0  0  0  0  0  0  0  0  0  0  0  0
    3.1284    0.5480   -1.0016 O   0  0  0  0  0  0  0  0  0  0  0  0
    4.2572    1.3264   -0.2726 C   0  0  0  0  0  0  0  0  0  0  0  0
    3.8533    2.0024   -0.9641 H   0  0  0  0  0  0  0  0  0  0  0  0
    4.9333    2.7912   -0.8247 C   0  0  0  0  0  0  0  0  0  0  0  0
    5.4232    2.5545   -1.8649 H   0  0  0  0  0  0  0  0  0  0  0  0
    5.9799    3.3602    0.1265 C   0  0  0  0  0  0  0  0  0  0  0  0
    7.2673    2.4783   -0.0574 C   0  0  0  0  0  0  0  0  0  0  0  0
    7.3460    2.3223   -1.1835 H   0  0  0  0  0  0  0  0  0  0  0  0
    8.3459    3.3055    0.4977 N   0  0  0  0  0  0  0  0  0  0  0  0
    7.2274    0.8518    0.5832 C   0  0  0  0  0  0  0  0  0  0  0  0
    8.2640    1.1624    0.7124 H   0  0  0  0  0  0  0  0  0  0  0  0
    5.7419    0.4135   -0.3246 C   0  0  0  0  0  0  0  0  0  0  0  0
    5.7783    1.3564    0.1630 H   0  0  0  0  0  0  0  0  0  0  0  0
    5.2200   -0.9419   -0.0239 O   0  0  0  0  0  0  0  0  0  0  0  0
    5.4131   -1.3807    1.3081 C   0  0  0  0  0  0  0  0  0  0  0  0
    6.2668   -0.7936    1.2651 H   0  0  0  0  0  0  0  0  0  0  0  0
    4.7372   -0.7822    2.5920 C   0  0  0  0  0  0  0  0  0  0  0  0
    3.9635   -1.4480    2.1138 H   0  0  0  0  0  0  0  0  0  0  0  0
    3.6173   -0.6472    3.4194 O   0  0  0  0  0  0  0  0  0  0  0  0
    5.8194   -1.1823    3.7046 C   0  0  0  0  0  0  0  0  0  0  0  0
    5.4441   -0.1832    4.0314 H   0  0  0  0  0  0  0  0  0  0  0  0
    6.8361   -0.3132    4.4197 O   0  0  0  0  0  0  0  0  0  0  0  0
    6.7010   -0.5783    5.7780 C   0  0  0  0  0  0  0  0  0  0  0  0
    5.6235   -0.5842    5.9008 H   0  0  0  0  0  0  0  0  0  0  0  0
    7.2029    0.5179    6.7304 C   0  0  0  0  0  0  0  0  0  0  0  0
    6.3548    0.6710    7.4318 H   0  0  0  0  0  0  0  0  0  0  0  0
    7.4627    1.8130    6.1071 N   0  0  0  0  0  0  0  0  0  0  0  0
    8.3570   -0.1293    7.5189 C   0  0  0  0  0  0  0  0  0  0  0  0
    9.1368   -0.4869    6.8223 H   0  0  0  0  0  0  0  0  0  0  0  0
    8.9705    0.7797    8.3925 O   0  0  0  0  0  0  0  0  0  0  0  0
    7.6915   -1.2563    8.3360 C   0  0  0  0  0  0  0  0  0  0  0  0
    6.9669   -0.8092    9.0380 H   0  0  0  0  0  0  0  0  0  0  0  0
    8.6132   -1.9264    9.1849 O   0  0  0  0  0  0  0  0  0  0  0  0
    6.8561   -2.1445    7.3873 C   0  0  0  0  0  0  0  0  0  0  0  0
    5.8353   -1.7346    7.5114 H   0  0  0  0  0  0  0  0  0  0  0  0
    7.2462   -1.8453    6.0582 O   0  0  0  0  0  0  0  0  0  0  0  0
    6.7988   -3.6412    7.4907 C   0  0  0  0  0  0  0  0  0  0  0  0
    5.4474   -4.1086    7.7950 N   0  0  0  0  0  0  0  0  0  0  0  0
    6.9505   -1.8426    2.8415 C   0  0  0  0  0  0  0  0  0  0  0  0
    7.3295   -0.9994    2.3310 H   0  0  0  0  0  0  0  0  0  0  0  0
    6.2503   -2.5164    1.7161 O   0  0  0  0  0  0  0  0  0  0  0  0
    8.3684   -2.3332    3.2891 C   0  0  0  0  0  0  0  0  0  0  0  0
    9.1748   -1.1318    3.4103 O   0  0  0  0  0  0  0  0  0  0  0  0
    8.0747   -0.2562   -0.0116 O   0  0  0  0  0  0  0  0  0  0  0  0
    4.1577    3.9955   -1.1054 N   0  0  0  0  0  0  0  0  0  0  0  0
    1.2209    2.0917   -2.3201 C   0  0  0  0  0  0  0  0  0  0  0  0
    1.4124    3.1278   -2.7363 H   0  0  0  0  0  0  0  0  0  0  0  0
    0.3919    2.5214   -1.1762 N   0  0  0  0  0  0  0  0  0  0  0  0
    0.4857    1.3457   -3.3970 C   0  0  0  0  0  0  0  0  0  0  0  0
    0.6699    0.2908   -3.1654 H   0  0  0  0  0  0  0  0  0  0  0  0
   -0.9145    1.5710   -3.4308 O   0  0  0  0  0  0  0  0  0  0  0  0
    1.2942    1.8130   -4.6521 C   0  0  0  0  0  0  0  0  0  0  0  0
    1.9139    2.6981   -4.5066 H   0  0  0  0  0  0  0  0  0  0  0  0
    0.6443    2.1881   -5.8611 O   0  0  0  0  0  0  0  0  0  0  0  0
    2.3972    0.7115   -4.7080 C   0  0  0  0  0  0  0  0  0  0  0  0
    1.9794   -0.2891   -4.5765 H   0  0  0  0  0  0  0  0  0  0  0  0
    3.2374    0.8489   -3.5475 O   0  0  0  0  0  0  0  0  0  0  0  0
    3.1413    0.6418   -5.9948 C   0  0  0  0  0  0  0  0  0  0  0  0
    4.0809   -0.3768   -5.8324 O   0  0  0  0  0  0  0  0  0  0  0  0
    6.2794    4.4210   -0.1056 H   0  0  0  0  0  0  0  0  0  0  0  0
    5.6364    3.2123    1.1532 H   0  0  0  0  0  0  0  0  0  0  0  0
    8.3327    4.2808    0.2364 H   0  0  0  0  0  0  0  0  0  0  0  0
    8.1635    3.4056    1.4505 H   0  0  0  0  0  0  0  0  0  0  0  0
    3.5019   -1.4660    3.9509 H   0  0  0  0  0  0  0  0  0  0  0  0
    7.6417    2.4926    6.8573 H   0  0  0  0  0  0  0  0  0  0  0  0
    6.5696    2.1197    5.6977 H   0  0  0  0  0  0  0  0  0  0  0  0
    9.5575    1.3575    7.8752 H   0  0  0  0  0  0  0  0  0  0  0  0
    8.5417   -1.4434   10.0394 H   0  0  0  0  0  0  0  0  0  0  0  0
    7.5346   -4.0007    8.2256 H   0  0  0  0  0  0  0  0  0  0  0  0
    7.1076   -4.1046    6.5288 H   0  0  0  0  0  0  0  0  0  0  0  0
    5.3968   -4.3073    8.7925 H   0  0  0  0  0  0  0  0  0  0  0  0
    4.7757   -3.3658    7.6247 H   0  0  0  0  0  0  0  0  0  0  0  0
    8.8654   -2.9017    2.4294 H   0  0  0  0  0  0  0  0  0  0  0  0
    8.5410   -2.8947    4.1576 H   0  0  0  0  0  0  0  0  0  0  0  0
    8.5719   -0.3712    3.2875 H   0  0  0  0  0  0  0  0  0  0  0  0
    8.5736   -0.7470    0.7182 H   0  0  0  0  0  0  0  0  0  0  0  0
    3.3005    3.8957   -1.6486 H   0  0  0  0  0  0  0  0  0  0  0  0
    4.6333    4.6363   -1.7867 H   0  0  0  0  0  0  0  0  0  0  0  0
   -0.0921    3.3971   -1.4545 H   0  0  0  0  0  0  0  0  0  0  0  0
    0.9707    2.7742   -0.3709 H   0  0  0  0  0  0  0  0  0  0  0  0
   -1.3124    0.7820   -2.9798 H   0  0  0  0  0  0  0  0  0  0  0  0
    1.0977    3.0244   -6.1467 H   0  0  0  0  0  0  0  0  0  0  0  0
    2.4091    0.3560   -6.7839 H   0  0  0  0  0  0  0  0  0  0  0  0
    3.5949    1.5901   -6.1929 H   0  0  0  0  0  0  0  0  0  0  0  0
    3.6635   -1.1903   -6.1583 H   0  0  0  0  0  0  0  0  0  0  0  0
  1  2  1  0  0  0  0
  3  1  1  0  0  0  0
  4  3  1  0  0  0  0
  4  5  1  0  0  0  0
  6  4  1  0  0  0  0
  6  7  1  0  0  0  0
  8  6  1  0  0  0  0
  9  8  1  0  0  0  0
  9 10  1  0  0  0  0
 11  9  1  0  0  0  0
 12  9  1  0  0  0  0
 12 13  1  0  0  0  0
 14 12  1  0  0  0  0
 14 15  1  0  0  0  0
 14  4  1  0  0  0  0
 16 14  1  0  0  0  0
 17 16  1  0  0  0  0
 17 18  1  0  0  0  0
 19 17  1  0  0  0  0
 19 20  1  0  0  0  0
 21 19  1  0  0  0  0
 22 19  1  0  0  0  0
 22 23  1  0  0  0  0
 24 22  1  0  0  0  0
 25 24  1  0  0  0  0
 25 26  1  0  0  0  0
 27 25  1  0  0  0  0
 27 28  1  0  0  0  0
 29 27  1  0  0  0  0
 30 27  1  0  0  0  0
 30 31  1  0  0  0  0
 32 30  1  0  0  0  0
 33 30  1  0  0  0  0
 33 34  1  0  0  0  0
 35 33  1  0  0  0  0
 36 33  1  0  0  0  0
 36 37  1  0  0  0  0
 38 36  1  0  0  0  0
 38 25  1  0  0  0  0
 39 36  1  0  0  0  0
 40 39  1  0  0  0  0
 41 22  1  0  0  0  0
 41 42  1  0  0  0  0
 43 41  1  0  0  0  0
 43 17  1  0  0  0  0
 44 41  1  0  0  0  0
 45 44  1  0  0  0  0
 46 12  1  0  0  0  0
 47  6  1  0  0  0  0
 48  1  1  0  0  0  0
 48 49  1  0  0  0  0
 50 48  1  0  0  0  0
 51 48  1  0  0  0  0
 51 52  1  0  0  0  0
 53 51  1  0  0  0  0
 54 51  1  0  0  0  0
 54 55  1  0  0  0  0
 56 54  1  0  0  0  0
 57 54  1  0  0  0  0
 57 58  1  0  0  0  0
 59 57  1  0  0  0  0
 59  1  1  0  0  0  0
 60 57  1  0  0  0  0
 61 60  1  0  0  0  0
  8 62  1  0  0  0  0
  8 63  1  0  0  0  0
 11 64  1  0  0  0  0
 11 65  1  0  0  0  0
 21 66  1  0  0  0  0
 29 67  1  0  0  0  0
 29 68  1  0  0  0  0
 32 69  1  0  0  0  0
 35 70  1  0  0  0  0
 39 71  1  0  0  0  0
 39 72  1  0  0  0  0
 40 73  1  0  0  0  0
 40 74  1  0  0  0  0
 44 75  1  0  0  0  0
 44 76  1  0  0  0  0
 45 77  1  0  0  0  0
 46 78  1  0  0  0  0
 47 79  1  0  0  0  0
 47 80  1  0  0  0  0
 50 81  1  0  0  0  0
 50 82  1  0  0  0  0
 53 83  1  0  0  0  0
 56 84  1  0  0  0  0
 60 85  1  0  0  0  0
 60 86  1  0  0  0  0
 61 87  1  0  0  0  0
M  END
>  <energy>
932.30320401292408

$$$$
