@<TRIPOS>MOLECULE
2MXS_PAR_A_101
 87 90 0 0 0
SMALL
GASTEIGER

@<TRIPOS>ATOM
      1 C           2.6346    1.3313   -2.3142 C.3     1  UNL1        0.1776
      2 H           3.1099    2.2762   -2.3892 H       1  UNL1        0.0927
      3 O           3.1284    0.5480   -1.0016 O.3     1  UNL1       -0.3422
      4 C           4.2572    1.3264   -0.2726 C.3     1  UNL1        0.1055
      5 H           3.8533    2.0024   -0.9641 H       1  UNL1        0.0639
      6 C           4.9333    2.7912   -0.8247 C.3     1  UNL1        0.0355
      7 H           5.4232    2.5545   -1.8649 H       1  UNL1        0.0485
      8 C           5.9799    3.3602    0.1265 C.3     1  UNL1       -0.0175
      9 C           7.2673    2.4783   -0.0574 C.3     1  UNL1        0.0351
     10 H           7.3460    2.3223   -1.1835 H       1  UNL1        0.0485
     11 N           8.3459    3.3055    0.4977 N.3     1  UNL1       -0.3250
     12 C           7.2274    0.8518    0.5832 C.3     1  UNL1        0.0990
     13 H           8.2640    1.1624    0.7124 H       1  UNL1        0.0636
     14 C           5.7419    0.4135   -0.3246 C.3     1  UNL1        0.1166
     15 H           5.7783    1.3564    0.1630 H       1  UNL1        0.0650
     16 O           5.2200   -0.9419   -0.0239 O.3     1  UNL1       -0.3402
     17 C           5.4131   -1.3807    1.3081 C.3     1  UNL1        0.1884
     18 H           6.2668   -0.7936    1.2651 H       1  UNL1        0.0938
     19 C           4.7372   -0.7822    2.5920 C.3     1  UNL1        0.1345
     20 H           3.9635   -1.4480    2.1138 H       1  UNL1        0.0671
     21 O           3.6173   -0.6472    3.4194 O.3     1  UNL1       -0.3841
     22 C           5.8194   -1.1823    3.7046 C.3     1  UNL1        0.1205
     23 H           5.4441   -0.1832    4.0314 H       1  UNL1        0.0651
     24 O           6.8361   -0.3132    4.4197 O.3     1  UNL1       -0.3410
     25 C           6.7010   -0.5783    5.7780 C.3     1  UNL1        0.1776
     26 H           5.6235   -0.5842    5.9008 H       1  UNL1        0.0927
     27 C           7.2029    0.5179    6.7304 C.3     1  UNL1        0.0853
     28 H           6.3548    0.6710    7.4318 H       1  UNL1        0.0535
     29 N           7.4627    1.8130    6.1071 N.3     1  UNL1       -0.3211
     30 C           8.3570   -0.1293    7.5189 C.3     1  UNL1        0.1033
     31 H           9.1368   -0.4869    6.8223 H       1  UNL1        0.0637
     32 O           8.9705    0.7797    8.3925 O.3     1  UNL1       -0.3874
     33 C           7.6915   -1.2563    8.3360 C.3     1  UNL1        0.1100
     34 H           6.9669   -0.8092    9.0380 H       1  UNL1        0.0646
     35 O           8.6132   -1.9264    9.1849 O.3     1  UNL1       -0.3866
     36 C           6.8561   -2.1445    7.3873 C.3     1  UNL1        0.1022
     37 H           5.8353   -1.7346    7.5114 H       1  UNL1        0.0636
     38 O           7.2462   -1.8453    6.0582 O.3     1  UNL1       -0.3425
     39 C           6.7988   -3.6412    7.4907 C.3     1  UNL1        0.0222
     40 N           5.4474   -4.1086    7.7950 N.3     1  UNL1       -0.3276
     41 C           6.9505   -1.8426    2.8415 C.3     1  UNL1        0.1135
     42 H           7.3295   -0.9994    2.3310 H       1  UNL1        0.0647
     43 O           6.2503   -2.5164    1.7161 O.3     1  UNL1       -0.3405
     44 C           8.3684   -2.3332    3.2891 C.3     1  UNL1        0.0730
     45 O           9.1748   -1.1318    3.4103 O.3     1  UNL1       -0.3924
     46 O           8.0747   -0.2562   -0.0116 O.3     1  UNL1       -0.3876
     47 N           4.1577    3.9955   -1.1054 N.3     1  UNL1       -0.3250
     48 C           1.2209    2.0917   -2.3201 C.3     1  UNL1        0.0853
     49 H           1.4124    3.1278   -2.7363 H       1  UNL1        0.0535
     50 N           0.3919    2.5214   -1.1762 N.3     1  UNL1       -0.3211
     51 C           0.4857    1.3457   -3.3970 C.3     1  UNL1        0.1033
     52 H           0.6699    0.2908   -3.1654 H       1  UNL1        0.0637
     53 O          -0.9145    1.5710   -3.4308 O.3     1  UNL1       -0.3874
     54 C           1.2942    1.8130   -4.6521 C.3     1  UNL1        0.1109
     55 H           1.9139    2.6981   -4.5066 H       1  UNL1        0.0646
     56 O           0.6443    2.1881   -5.8611 O.3     1  UNL1       -0.3865
     57 C           2.3972    0.7115   -4.7080 C.3     1  UNL1        0.1129
     58 H           1.9794   -0.2891   -4.5765 H       1  UNL1        0.0647
     59 O           3.2374    0.8489   -3.5475 O.3     1  UNL1       -0.3415
     60 C           3.1413    0.6418   -5.9948 C.3     1  UNL1        0.0730
     61 O           4.0809   -0.3768   -5.8324 O.3     1  UNL1       -0.3924
     62 H           6.2794    4.4210   -0.1056 H       1  UNL1        0.0297
     63 H           5.6364    3.2123    1.1532 H       1  UNL1        0.0297
     64 H           8.3327    4.2808    0.2364 H       1  UNL1        0.1185
     65 H           8.1635    3.4056    1.4505 H       1  UNL1        0.1185
     66 H           3.5019   -1.4660    3.9509 H       1  UNL1        0.2101
     67 H           7.6417    2.4926    6.8573 H       1  UNL1        0.1187
     68 H           6.5696    2.1197    5.6977 H       1  UNL1        0.1187
     69 H           9.5575    1.3575    7.8752 H       1  UNL1        0.2100
     70 H           8.5417   -1.4434   10.0394 H       1  UNL1        0.2100
     71 H           7.5346   -4.0007    8.2256 H       1  UNL1        0.0448
     72 H           7.1076   -4.1046    6.5288 H       1  UNL1        0.0448
     73 H           5.3968   -4.3073    8.7925 H       1  UNL1        0.1183
     74 H           4.7757   -3.3658    7.6247 H       1  UNL1        0.1183
     75 H           8.8654   -2.9017    2.4294 H       1  UNL1        0.0584
     76 H           8.5410   -2.8947    4.1576 H       1  UNL1        0.0584
     77 H           8.5719   -0.3712    3.2875 H       1  UNL1        0.2095
     78 H           8.5736   -0.7470    0.7182 H       1  UNL1        0.2100
     79 H           3.3005    3.8957   -1.6486 H       1  UNL1        0.1185
     80 H           4.6333    4.6363   -1.7867 H       1  UNL1        0.1185
     81 H          -0.0921    3.3971   -1.4545 H       1  UNL1        0.1187
     82 H           0.9707    2.7742   -0.3709 H       1  UNL1        0.1187
     83 H          -1.3124    0.7820   -2.9798 H       1  UNL1        0.2100
     84 H           1.0977    3.0244   -6.1467 H       1  UNL1        0.2100
     85 H           2.4091    0.3560   -6.7839 H       1  UNL1        0.0584
     86 H           3.5949    1.5901   -6.1929 H       1  UNL1        0.0584
     87 H           3.6635   -1.1903   -6.1583 H       1  UNL1        0.2095
@<TRIPOS>BOND
     1     1     2    1
     2     3     1    1
     3     4     3    1
     4     4     5    1
     5     6     4    1
     6     6     7    1
     7     8     6    1
     8     9     8    1
     9     9    10    1
    10    11     9    1
    11    12     9    1
    12    12    13    1
    13    14    12    1
    14    14    15    1
    15    14     4    1
    16    16    14    1
    17    17    16    1
    18    17    18    1
    19    19    17    1
    20    19    20    1
    21    21    19    1
    22    22    19    1
    23    22    23    1
    24    24    22    1
    25    25    24    1
    26    25    26    1
    27    27    25    1
    28    27    28    1
    29    29    27    1
    30    30    27    1
    31    30    31    1
    32    32    30    1
    33    33    30    1
    34    33    34    1
    35    35    33    1
    36    36    33    1
    37    36    37    1
    38    38    36    1
    39    38    25    1
    40    39    36    1
    41    40    39    1
    42    41    22    1
    43    41    42    1
    44    43    41    1
    45    43    17    1
    46    44    41    1
    47    45    44    1
    48    46    12    1
    49    47     6    1
    50    48     1    1
    51    48    49    1
    52    50    48    1
    53    51    48    1
    54    51    52    1
    55    53    51    1
    56    54    51    1
    57    54    55    1
    58    56    54    1
    59    57    54    1
    60    57    58    1
    61    59    57    1
    62    59     1    1
    63    60    57    1
    64    61    60    1
    65     8    62    1
    66     8    63    1
    67    11    64    1
    68    11    65    1
    69    21    66    1
    70    29    67    1
    71    29    68    1
    72    32    69    1
    73    35    70    1
    74    39    71    1
    75    39    72    1
    76    40    73    1
    77    40    74    1
    78    44    75    1
    79    44    76    1
    80    45    77    1
    81    46    78    1
    82    47    79    1
    83    47    80    1
    84    50    81    1
    85    50    82    1
    86    53    83    1
    87    56    84    1
    88    60    85    1
    89    60    86    1
    90    61    87    1
