@<TRIPOS>MOLECULE
2GDI_TPP_X_100
 45 46 0 0 0
SMALL
GASTEIGER

@<TRIPOS>ATOM
      1 N          -5.1649   13.7272   -5.6550 N.ar    1  UNL1       -0.2400
      2 C          -6.1210   13.7670   -6.5921 C.ar    1  UNL1        0.1280
      3 C          -6.0311   14.8445   -7.6321 C.3     1  UNL1       -0.0046
      4 N          -7.1281   12.8787   -6.6565 N.ar    1  UNL1       -0.2176
      5 C          -7.1066   11.8522   -5.7940 C.ar    1  UNL1        0.1289
      6 N          -8.2463   11.0486   -5.8040 N.pl3   1  UNL1       -0.3427
      7 C          -6.0572   11.6013   -4.9336 C.ar    1  UNL1        0.0747
      8 C          -5.1636   12.6555   -4.8403 C.ar    1  UNL1        0.0421
      9 C          -5.9069   10.3853   -4.0563 C.3     1  UNL1        0.1811
     10 N          -6.1121    9.0142   -4.6446 N.ar    1  UNL1       -0.1903
     11 C          -6.1186    8.7713   -5.9427 C.ar    1  UNL1        0.2109
     12 S          -6.4699    7.1277   -6.2796 S.2     1  UNL1       -0.0273
     13 C          -6.6322    6.7160   -4.6046 C.ar    1  UNL1        0.0636
     14 C          -6.2473    7.8426   -3.8574 C.ar    1  UNL1        0.1915
     15 C          -5.9457    7.9475   -2.4031 C.3     1  UNL1        0.0216
     16 C          -7.0197    5.2489   -4.2049 C.3     1  UNL1        0.0088
     17 C          -8.2228    4.6164   -5.0265 C.3     1  UNL1        0.0637
     18 O          -8.9272    3.4479   -4.4986 O.3     1  UNL1       -0.2860
     19 P         -10.3400    3.6086   -3.5612 P.3     1  UNL1        0.4834
     20 O          -9.7914    4.9315   -2.9725 O.2     1  UNL1       -0.2269
     21 O          -9.7580    2.7023   -2.3174 O.3     1  UNL1       -0.3022
     22 O         -10.9530    2.1306   -4.2189 O.3     1  UNL1       -0.1862
     23 P         -12.4860    2.3163   -3.8121 P.3     1  UNL1        0.4808
     24 O         -12.8045    2.4091   -2.3610 O.2     1  UNL1       -0.2271
     25 O         -12.9262    3.6231   -4.6234 O.3     1  UNL1       -0.3023
     26 O         -13.3837    1.2527   -4.6012 O.3     1  UNL1       -0.3023
     27 H          -4.9935   14.9656   -7.9549 H       1  UNL1        0.0308
     28 H          -6.3817   15.7987   -7.2382 H       1  UNL1        0.0308
     29 H          -6.6258   14.5832   -8.5163 H       1  UNL1        0.0308
     30 H          -8.8406   11.4449   -6.5405 H       1  UNL1        0.1437
     31 H          -8.7629   11.1484   -4.9312 H       1  UNL1        0.1437
     32 H          -4.3842   12.6945   -4.0800 H       1  UNL1        0.0836
     33 H          -6.5932   10.4964   -3.2063 H       1  UNL1        0.1087
     34 H          -4.8796   10.3830   -3.6594 H       1  UNL1        0.1087
     35 H          -5.9446    9.4972   -6.7278 H       1  UNL1        0.1462
     36 H          -5.5167    7.0180   -2.0175 H       1  UNL1        0.0336
     37 H          -6.8404    8.2000   -1.8325 H       1  UNL1        0.0336
     38 H          -5.1891    8.7200   -2.2008 H       1  UNL1        0.0336
     39 H          -7.2060    5.2025   -3.1269 H       1  UNL1        0.0343
     40 H          -6.1253    4.6282   -4.3735 H       1  UNL1        0.0343
     41 H          -7.7917    4.2673   -5.9732 H       1  UNL1        0.0569
     42 H          -8.9572    5.3844   -5.2847 H       1  UNL1        0.0569
     43 H         -10.1070    3.0140   -1.4637 H       1  UNL1        0.2220
     44 H         -13.0313    3.4584   -5.5845 H       1  UNL1        0.2220
     45 H         -14.3027    1.2404   -4.2573 H       1  UNL1        0.2220
@<TRIPOS>BOND
     1     1     2   ar
     2     1     8   ar
     3     2     3    1
     4     2     4   ar
     5     3    27    1
     6     3    28    1
     7     3    29    1
     8     4     5   ar
     9     5     6    1
    10     5     7   ar
    11     6    30    1
    12     6    31    1
    13     7     8   ar
    14     7     9    1
    15     8    32    1
    16     9    10    1
    17     9    33    1
    18     9    34    1
    19    10    11   ar
    20    10    14   ar
    21    11    12   ar
    22    11    35    1
    23    12    13   ar
    24    13    14   ar
    25    13    16    1
    26    14    15    1
    27    15    36    1
    28    15    37    1
    29    15    38    1
    30    16    17    1
    31    16    39    1
    32    16    40    1
    33    17    18    1
    34    17    41    1
    35    17    42    1
    36    19    21    1
    37    19    22    1
    38    19    20    2
    39    19    18    1
    40    21    43    1
    41    22    23    1
    42    23    24    2
    43    23    25    1
    44    23    26    1
    45    25    44    1
    46    26    45    1
