REMARK  12 active torsions:
REMARK  status: ('A' for Active; 'I' for Inactive)
REMARK    1  A    between atoms: C_5  and  N_6 
REMARK    2  A    between atoms: C_7  and  C_9 
REMARK    3  A    between atoms: C_9  and  N_10 
REMARK    4  A    between atoms: C_13  and  C_16 
REMARK    5  A    between atoms: C_16  and  C_17 
REMARK    6  A    between atoms: C_17  and  O_18 
REMARK    7  A    between atoms: P_19  and  O_18 
REMARK    8  A    between atoms: P_19  and  O_21 
REMARK    9  A    between atoms: P_19  and  O_22 
REMARK   10  A    between atoms: O_22  and  P_23 
REMARK   11  A    between atoms: P_23  and  O_25 
REMARK   12  A    between atoms: P_23  and  O_26 
ROOT
ATOM      1  N   UNL d   1      -6.112   9.014  -4.645  0.00  0.00    -0.349 N 
ATOM      2  C   UNL d   1      -6.119   8.771  -5.943  0.00  0.00     0.141 C 
ATOM      3  S   UNL d   1      -6.470   7.128  -6.280  0.00  0.00    -0.087 SA
ATOM      4  C   UNL d   1      -6.632   6.716  -4.605  0.00  0.00     0.008 C 
ATOM      5  C   UNL d   1      -6.247   7.843  -3.857  0.00  0.00     0.021 C 
ATOM      6  C   UNL d   1      -5.946   7.947  -2.403  0.00  0.00     0.069 C 
ENDROOT
BRANCH   4   7
ATOM      7  C   UNL d   1      -7.020   5.249  -4.205  0.00  0.00     0.075 C 
BRANCH   7   8
ATOM      8  C   UNL d   1      -8.223   4.616  -5.027  0.00  0.00     0.185 C 
BRANCH   8   9
ATOM      9  O   UNL d   1      -8.927   3.448  -4.499  0.00  0.00    -0.296 OA
BRANCH   9  10
ATOM     10  P   UNL d   1     -10.340   3.609  -3.561  0.00  0.00     0.401 P 
ATOM     11  O   UNL d   1      -9.791   4.931  -2.973  0.00  0.00    -0.631 OA
BRANCH  10  12
ATOM     12  O   UNL d   1      -9.758   2.702  -2.317  0.00  0.00    -0.307 OA
ATOM     13  H   UNL d   1     -10.107   3.014  -1.464  0.00  0.00     0.222 HD
ENDBRANCH  10  12
BRANCH  10  14
ATOM     14  O   UNL d   1     -10.953   2.131  -4.219  0.00  0.00    -0.195 OA
BRANCH  14  15
ATOM     15  P   UNL d   1     -12.486   2.316  -3.812  0.00  0.00     0.399 P 
ATOM     16  O   UNL d   1     -12.805   2.409  -2.361  0.00  0.00    -0.631 OA
BRANCH  15  17
ATOM     17  O   UNL d   1     -12.926   3.623  -4.623  0.00  0.00    -0.307 OA
ATOM     18  H   UNL d   1     -13.031   3.458  -5.585  0.00  0.00     0.222 HD
ENDBRANCH  15  17
BRANCH  15  19
ATOM     19  O   UNL d   1     -13.384   1.253  -4.601  0.00  0.00    -0.307 OA
ATOM     20  H   UNL d   1     -14.303   1.240  -4.257  0.00  0.00     0.222 HD
ENDBRANCH  15  19
ENDBRANCH  14  15
ENDBRANCH  10  14
ENDBRANCH   9  10
ENDBRANCH   8   9
ENDBRANCH   7   8
ENDBRANCH   4   7
BRANCH   1  21
ATOM     21  C   UNL d   1      -5.907  10.385  -4.056  0.00  0.00     0.172 C 
BRANCH  21  22
ATOM     22  C   UNL d   1      -6.057  11.601  -4.934  0.00  0.00     0.018 C 
ATOM     23  C   UNL d   1      -7.107  11.852  -5.794  0.00  0.00     0.112 C 
ATOM     24  N   UNL d   1      -7.128  12.879  -6.657  0.00  0.00    -0.222 NA
ATOM     25  C   UNL d   1      -6.121  13.767  -6.592  0.00  0.00     0.123 C 
ATOM     26  N   UNL d   1      -5.165  13.727  -5.655  0.00  0.00    -0.245 NA
ATOM     27  C   UNL d   1      -6.031  14.845  -7.632  0.00  0.00     0.093 C 
ATOM     28  C   UNL d   1      -5.164  12.655  -4.840  0.00  0.00     0.131 C 
BRANCH  23  29
ATOM     29  N   UNL d   1      -8.246  11.049  -5.804  0.00  0.00    -0.286 NA
ATOM     30  H   UNL d   1      -8.841  11.445  -6.540  0.00  0.00     0.125 HD
ATOM     31  H   UNL d   1      -8.763  11.148  -4.931  0.00  0.00     0.125 HD
ENDBRANCH  23  29
ENDBRANCH  21  22
ENDBRANCH   1  21
TORSDOF 12
