2GDI_TPP_X_100
 OpenBabel03221817233D

 45 46  0  0  0  0  0  0  0  0999 V2000
   -5.1649   13.7272   -5.6550 N   0  0  0  0  0  0  0  0  0  0  0  0
   -6.1210   13.7670   -6.5921 C   0  0  0  0  0  0  0  0  0  0  0  0
   -6.0311   14.8445   -7.6321 C   0  0  0  0  0  0  0  0  0  0  0  0
   -7.1281   12.8787   -6.6565 N   0  0  0  0  0  0  0  0  0  0  0  0
   -7.1066   11.8522   -5.7940 C   0  0  0  0  0  0  0  0  0  0  0  0
   -8.2463   11.0486   -5.8040 N   0  0  0  0  0  0  0  0  0  0  0  0
   -6.0572   11.6013   -4.9336 C   0  0  0  0  0  0  0  0  0  0  0  0
   -5.1636   12.6555   -4.8403 C   0  0  0  0  0  0  0  0  0  0  0  0
   -5.9069   10.3853   -4.0563 C   0  0  0  0  0  0  0  0  0  0  0  0
   -6.1121    9.0142   -4.6446 N   0  3  0  0  0  0  0  0  0  0  0  0
   -6.1186    8.7713   -5.9427 C   0  0  0  0  0  0  0  0  0  0  0  0
   -6.4699    7.1277   -6.2796 S   0  0  0  0  0  0  0  0  0  0  0  0
   -6.6322    6.7160   -4.6046 C   0  0  0  0  0  0  0  0  0  0  0  0
   -6.2473    7.8426   -3.8574 C   0  0  0  0  0  0  0  0  0  0  0  0
   -5.9457    7.9475   -2.4031 C   0  0  0  0  0  0  0  0  0  0  0  0
   -7.0197    5.2489   -4.2049 C   0  0  0  0  0  0  0  0  0  0  0  0
   -8.2228    4.6164   -5.0265 C   0  0  0  0  0  0  0  0  0  0  0  0
   -8.9272    3.4479   -4.4986 O   0  0  0  0  0  0  0  0  0  0  0  0
  -10.3400    3.6086   -3.5612 P   0  0  2  0  0  0  0  0  0  0  0  0
   -9.7914    4.9315   -2.9725 O   0  0  0  0  0  0  0  0  0  0  0  0
   -9.7580    2.7023   -2.3174 O   0  0  0  0  0  0  0  0  0  0  0  0
  -10.9530    2.1306   -4.2189 O   0  0  0  0  0  0  0  0  0  0  0  0
  -12.4860    2.3163   -3.8121 P   0  0  0  0  0  0  0  0  0  0  0  0
  -12.8045    2.4091   -2.3610 O   0  0  0  0  0  0  0  0  0  0  0  0
  -12.9262    3.6231   -4.6234 O   0  0  0  0  0  0  0  0  0  0  0  0
  -13.3837    1.2527   -4.6012 O   0  0  0  0  0  0  0  0  0  0  0  0
   -4.9935   14.9656   -7.9549 H   0  0  0  0  0  0  0  0  0  0  0  0
   -6.3817   15.7987   -7.2382 H   0  0  0  0  0  0  0  0  0  0  0  0
   -6.6258   14.5832   -8.5163 H   0  0  0  0  0  0  0  0  0  0  0  0
   -8.8406   11.4449   -6.5405 H   0  0  0  0  0  0  0  0  0  0  0  0
   -8.7629   11.1484   -4.9312 H   0  0  0  0  0  0  0  0  0  0  0  0
   -4.3842   12.6945   -4.0800 H   0  0  0  0  0  0  0  0  0  0  0  0
   -6.5932   10.4964   -3.2063 H   0  0  0  0  0  0  0  0  0  0  0  0
   -4.8796   10.3830   -3.6594 H   0  0  0  0  0  0  0  0  0  0  0  0
   -5.9446    9.4972   -6.7278 H   0  0  0  0  0  0  0  0  0  0  0  0
   -5.5167    7.0180   -2.0175 H   0  0  0  0  0  0  0  0  0  0  0  0
   -6.8404    8.2000   -1.8325 H   0  0  0  0  0  0  0  0  0  0  0  0
   -5.1891    8.7200   -2.2008 H   0  0  0  0  0  0  0  0  0  0  0  0
   -7.2060    5.2025   -3.1269 H   0  0  0  0  0  0  0  0  0  0  0  0
   -6.1253    4.6282   -4.3735 H   0  0  0  0  0  0  0  0  0  0  0  0
   -7.7917    4.2673   -5.9732 H   0  0  0  0  0  0  0  0  0  0  0  0
   -8.9572    5.3844   -5.2847 H   0  0  0  0  0  0  0  0  0  0  0  0
  -10.1070    3.0140   -1.4637 H   0  0  0  0  0  0  0  0  0  0  0  0
  -13.0313    3.4584   -5.5845 H   0  0  0  0  0  0  0  0  0  0  0  0
  -14.3027    1.2404   -4.2573 H   0  0  0  0  0  0  0  0  0  0  0  0
  1  2  2  0  0  0  0
  1  8  1  0  0  0  0
  2  3  1  0  0  0  0
  2  4  1  0  0  0  0
  3 27  1  0  0  0  0
  3 28  1  0  0  0  0
  3 29  1  0  0  0  0
  4  5  2  0  0  0  0
  5  6  1  0  0  0  0
  5  7  1  0  0  0  0
  6 30  1  0  0  0  0
  6 31  1  0  0  0  0
  7  8  2  0  0  0  0
  7  9  1  0  0  0  0
  8 32  1  0  0  0  0
  9 10  1  0  0  0  0
  9 33  1  0  0  0  0
  9 34  1  0  0  0  0
 10 11  2  0  0  0  0
 10 14  1  0  0  0  0
 11 12  1  0  0  0  0
 11 35  1  0  0  0  0
 12 13  1  0  0  0  0
 13 14  2  0  0  0  0
 13 16  1  0  0  0  0
 14 15  1  0  0  0  0
 15 36  1  0  0  0  0
 15 37  1  0  0  0  0
 15 38  1  0  0  0  0
 16 17  1  0  0  0  0
 16 39  1  0  0  0  0
 16 40  1  0  0  0  0
 17 18  1  0  0  0  0
 17 41  1  0  0  0  0
 17 42  1  0  0  0  0
 19 21  1  0  0  0  0
 19 22  1  0  0  0  0
 19 20  2  1  0  0  0
 19 18  1  0  0  0  0
 21 43  1  0  0  0  0
 22 23  1  0  0  0  0
 23 24  2  0  0  0  0
 23 25  1  0  0  0  0
 23 26  1  0  0  0  0
 25 44  1  0  0  0  0
 26 45  1  0  0  0  0
M  CHG  1  10   1
M  END
$$$$
