@<TRIPOS>MOLECULE
1O15_TEP_A_34
 13 14 0 0 0
SMALL
GASTEIGER
****
Coordinates from PDB:1O15:A:34 Model:1 without hydrogens
@<TRIPOS>ATOM
      1 C           9.8580    0.3120   37.7930 C.3     1  UNL1        0.1383
      2 N           9.7180    1.6530   37.5110 N.ar    1  UNL1       -0.2454
      3 C          10.4920    2.5290   38.2040 C.ar    1  UNL1        0.3350
      4 O          11.2520    2.0350   39.0330 O.2     1  UNL1       -0.2461
      5 N          10.4700    3.8860   38.0400 N.ar    1  UNL1       -0.2627
      6 C          11.2650    4.7520   38.7600 C.3     1  UNL1        0.1366
      7 C           9.5830    4.2930   37.0920 C.ar    1  UNL1        0.1716
      8 C           8.8130    3.4030   36.4010 C.ar    1  UNL1        0.1731
      9 C           8.8270    2.0050   36.5620 C.ar    1  UNL1        0.2850
     10 O           8.1640    1.1530   35.9760 O.2     1  UNL1       -0.2651
     11 N           8.0410    4.1640   35.5350 N.ar    1  UNL1       -0.2160
     12 C           8.3950    5.4540   35.7590 C.ar    1  UNL1        0.2005
     13 N           9.3110    5.5930   36.6790 N.ar    1  UNL1       -0.2047
@<TRIPOS>BOND
     1     1     2    1
     2     2     3   ar
     3     2     9   ar
     4     3     4    2
     5     3     5   ar
     6     5     6    1
     7     5     7   ar
     8     7     8   ar
     9     7    13   ar
    10     8     9   ar
    11     8    11   ar
    12     9    10    2
    13    11    12   ar
    14    12    13   ar
