1O15_TEP_A_34
 OpenBabel10091713573D
Coordinates from PDB:1O15:A:34 Model:1 without hydrogens
 21 22  0  0  0  0  0  0  0  0999 V2000
    9.8580    0.3120   37.7930 C   0  0  0  0  0  0  0  0  0  0  0  0
    9.7180    1.6530   37.5110 N   0  0  0  0  0  0  0  0  0  0  0  0
   10.4920    2.5290   38.2040 C   0  0  0  0  0  0  0  0  0  0  0  0
   11.2520    2.0350   39.0330 O   0  0  0  0  0  0  0  0  0  0  0  0
   10.4700    3.8860   38.0400 N   0  0  0  0  0  0  0  0  0  0  0  0
   11.2650    4.7520   38.7600 C   0  0  0  0  0  0  0  0  0  0  0  0
    9.5830    4.2930   37.0920 C   0  0  0  0  0  0  0  0  0  0  0  0
    8.8130    3.4030   36.4010 C   0  0  0  0  0  0  0  0  0  0  0  0
    8.8270    2.0050   36.5620 C   0  0  0  0  0  0  0  0  0  0  0  0
    8.1640    1.1530   35.9760 O   0  0  0  0  0  0  0  0  0  0  0  0
    8.0410    4.1640   35.5350 N   0  0  0  0  0  0  0  0  0  0  0  0
    8.3950    5.4540   35.7590 C   0  0  0  0  0  0  0  0  0  0  0  0
    9.3110    5.5930   36.6790 N   0  0  0  0  0  0  0  0  0  0  0  0
   10.5934    0.1836   38.5595 H   0  0  0  0  0  0  0  0  0  0  0  0
   10.1682   -0.2076   36.9105 H   0  0  0  0  0  0  0  0  0  0  0  0
    8.9212   -0.0817   38.1280 H   0  0  0  0  0  0  0  0  0  0  0  0
   11.8743    4.1947   39.4405 H   0  0  0  0  0  0  0  0  0  0  0  0
   10.6466    5.4310   39.3090 H   0  0  0  0  0  0  0  0  0  0  0  0
   11.8912    5.3025   38.0894 H   0  0  0  0  0  0  0  0  0  0  0  0
    7.3735    3.8352   34.8904 H   0  0  0  0  0  0  0  0  0  0  0  0
    7.9797    6.2502   35.2505 H   0  0  0  0  0  0  0  0  0  0  0  0
  1  2  1  0  0  0  0
  1 14  1  0  0  0  0
  1 15  1  0  0  0  0
  1 16  1  0  0  0  0
  2  3  1  0  0  0  0
  2  9  1  0  0  0  0
  3  4  2  0  0  0  0
  3  5  1  0  0  0  0
  5  6  1  0  0  0  0
  5  7  1  0  0  0  0
  6 17  1  0  0  0  0
  6 18  1  0  0  0  0
  6 19  1  0  0  0  0
  7  8  2  0  0  0  0
  7 13  1  0  0  0  0
  8  9  1  0  0  0  0
  8 11  1  0  0  0  0
  9 10  2  0  0  0  0
 11 12  1  0  0  0  0
 11 20  1  0  0  0  0
 12 13  2  0  0  0  0
 12 21  1  0  0  0  0
A    1
C1
A    2
N1
A    3
C2
A    4
O2
A    5
N3
A    6
C3
A    7
C4
A    8
C5
A    9
C6
A   10
O6
A   11
N7
A   12
C8
A   13
N9
M  END
>  <InstanceId>
1O15_TEP_A_34

>  <ChemCompId>
TEP

>  <PdbId>
1O15

>  <ChainId>
A

>  <ResidueNumber>
34

>  <InsertionCode>


>  <Model>
1

>  <AltIds>


>  <MissingHeavyAtoms>
0

>  <ObservedFormula>
C7 N4 O2

>  <Name>
THEOPHYLLINE

>  <SystematicName>
1,3-dimethyl-7H-purine-2,6-dione

>  <Synonyms>


>  <Type>
NON-POLYMER

>  <Formula>
C7 H8 N4 O2

>  <MolecularWeight>
180.164

>  <ModifiedDate>
2011-06-04

>  <Parent>


>  <OneLetterCode>


>  <SubcomponentList>


>  <AmbiguousFlag>
N

>  <InChI>
InChI=1S/C7H8N4O2/c1-10-5-4(8-3-9-5)6(12)11(2)7(10)13/h3H,1-2H3,(H,8,9)

>  <InChIKey>
ZFXYFBGIUFBOJW-UHFFFAOYSA-N

>  <SMILES>
CN1c2c([nH]cn2)C(=O)N(C1=O)C

$$$$
