1O15_TEP_A_34
 OpenBabel10091713573D
Coordinates from PDB:1O15:A:34 Model:1 without hydrogens
 21 22  0  0  0  0  0  0  0  0999 V2000
    9.8580    0.3120   37.7930 C   0  0  0  0  0  0  0  0  0  0  0  0
    9.7180    1.6530   37.5110 N   0  0  0  0  0  0  0  0  0  0  0  0
   10.4920    2.5290   38.2040 C   0  0  0  0  0  0  0  0  0  0  0  0
   11.2520    2.0350   39.0330 O   0  0  0  0  0  0  0  0  0  0  0  0
   10.4700    3.8860   38.0400 N   0  0  0  0  0  0  0  0  0  0  0  0
   11.2650    4.7520   38.7600 C   0  0  0  0  0  0  0  0  0  0  0  0
    9.5830    4.2930   37.0920 C   0  0  0  0  0  0  0  0  0  0  0  0
    8.8130    3.4030   36.4010 C   0  0  0  0  0  0  0  0  0  0  0  0
    8.8270    2.0050   36.5620 C   0  0  0  0  0  0  0  0  0  0  0  0
    8.1640    1.1530   35.9760 O   0  0  0  0  0  0  0  0  0  0  0  0
    8.0410    4.1640   35.5350 N   0  0  0  0  0  0  0  0  0  0  0  0
    8.3950    5.4540   35.7590 C   0  0  0  0  0  0  0  0  0  0  0  0
    9.3110    5.5930   36.6790 N   0  0  0  0  0  0  0  0  0  0  0  0
   10.5934    0.1836   38.5595 H   0  0  0  0  0  0  0  0  0  0  0  0
   10.1682   -0.2076   36.9105 H   0  0  0  0  0  0  0  0  0  0  0  0
    8.9212   -0.0817   38.1280 H   0  0  0  0  0  0  0  0  0  0  0  0
   11.8743    4.1947   39.4405 H   0  0  0  0  0  0  0  0  0  0  0  0
   10.6466    5.4310   39.3090 H   0  0  0  0  0  0  0  0  0  0  0  0
   11.8912    5.3025   38.0894 H   0  0  0  0  0  0  0  0  0  0  0  0
    7.3735    3.8352   34.8904 H   0  0  0  0  0  0  0  0  0  0  0  0
    7.9797    6.2502   35.2505 H   0  0  0  0  0  0  0  0  0  0  0  0
  1  2  1  0  0  0  0
  1 14  1  0  0  0  0
  1 15  1  0  0  0  0
  1 16  1  0  0  0  0
  2  3  1  0  0  0  0
  2  9  1  0  0  0  0
  3  4  2  0  0  0  0
  3  5  1  0  0  0  0
  5  6  1  0  0  0  0
  5  7  1  0  0  0  0
  6 17  1  0  0  0  0
  6 18  1  0  0  0  0
  6 19  1  0  0  0  0
  7  8  2  0  0  0  0
  7 13  1  0  0  0  0
  8  9  1  0  0  0  0
  8 11  1  0  0  0  0
  9 10  2  0  0  0  0
 11 12  1  0  0  0  0
 11 20  1  0  0  0  0
 12 13  2  0  0  0  0
 12 21  1  0  0  0  0
M  END
$$$$
