REMARK  0 active torsions:
REMARK  status: ('A' for Active; 'I' for Inactive)
ROOT
ATOM      1  C   UNL d   1       9.858   0.312  37.793  0.00  0.00     0.139 C 
ATOM      2  N   UNL d   1       9.718   1.653  37.511  0.00  0.00    -0.246 N 
ATOM      3  C   UNL d   1      10.492   2.529  38.204  0.00  0.00     0.335 A 
ATOM      4  O   UNL d   1      11.252   2.035  39.033  0.00  0.00    -0.246 OA
ATOM      5  N   UNL d   1      10.470   3.886  38.040  0.00  0.00    -0.263 N 
ATOM      6  C   UNL d   1      11.265   4.752  38.760  0.00  0.00     0.137 C 
ATOM      7  C   UNL d   1       9.583   4.293  37.092  0.00  0.00     0.172 A 
ATOM      8  C   UNL d   1       8.813   3.403  36.401  0.00  0.00     0.173 A 
ATOM      9  C   UNL d   1       8.827   2.005  36.562  0.00  0.00     0.285 A 
ATOM     10  O   UNL d   1       8.164   1.153  35.976  0.00  0.00    -0.265 OA
ATOM     11  N   UNL d   1       8.041   4.164  35.535  0.00  0.00    -0.216 NA
ATOM     12  C   UNL d   1       8.395   5.454  35.759  0.00  0.00     0.201 A 
ATOM     13  N   UNL d   1       9.311   5.593  36.679  0.00  0.00    -0.205 NA
ENDROOT
TORSDOF 0
