1MWL_GET_A_45
  1228              3D

 74 76  0  0  0  0  0  0  0  0999 V2000
   -3.6715   -1.2942    1.6060 C   0  0  0  0  0  0  0  0  0  0  0  0
   -4.1314   -1.7387    0.6978 H   0  0  0  0  0  0  0  0  0  0  0  0
   -3.0148   -0.1100    1.2957 O   0  0  0  0  0  0  0  0  0  0  0  0
   -3.0327    0.4408   -0.0805 C   0  0  0  0  0  0  0  0  0  0  0  0
   -4.0365    0.1785    0.2066 H   0  0  0  0  0  0  0  0  0  0  0  0
   -3.7646    0.8239   -1.4887 C   0  0  0  0  0  0  0  0  0  0  0  0
   -3.9840   -0.1724   -2.0746 H   0  0  0  0  0  0  0  0  0  0  0  0
   -2.6515    1.3750   -2.5189 C   0  0  0  0  0  0  0  0  0  0  0  0
   -1.0806    1.4242   -2.2917 C   0  0  0  0  0  0  0  0  0  0  0  0
   -0.7077    0.6413   -2.9843 H   0  0  0  0  0  0  0  0  0  0  0  0
   -0.2532    2.5856   -2.7389 N   0  0  0  0  0  0  0  0  0  0  0  0
   -0.5048    1.0799   -0.9316 C   0  0  0  0  0  0  0  0  0  0  0  0
    0.2053    1.7793   -0.5638 H   0  0  0  0  0  0  0  0  0  0  0  0
   -1.6169    0.9432    0.1511 C   0  0  0  0  0  0  0  0  0  0  0  0
   -1.1294    0.0886    0.7851 H   0  0  0  0  0  0  0  0  0  0  0  0
   -1.5338    2.0800    1.0235 O   0  0  0  0  0  0  0  0  0  0  0  0
    0.1077   -0.2166   -0.9343 O   0  0  0  0  0  0  0  0  0  0  0  0
    1.4957   -0.5144   -1.0814 C   0  0  0  0  0  0  0  0  0  0  0  0
    1.6686   -0.5626   -2.1597 H   0  0  0  0  0  0  0  0  0  0  0  0
    1.6757   -1.8676   -0.4715 C   0  0  0  0  0  0  0  0  0  0  0  0
    2.1914   -2.3945   -1.2925 H   0  0  0  0  0  0  0  0  0  0  0  0
    0.6567   -2.7675   -0.3183 O   0  0  0  0  0  0  0  0  0  0  0  0
    2.7362   -1.8573    0.6891 C   0  0  0  0  0  0  0  0  0  0  0  0
    3.4685   -1.0758    1.1249 H   0  0  0  0  0  0  0  0  0  0  0  0
    2.2189   -1.8085    2.0539 N   0  0  0  0  0  0  0  0  0  0  0  0
    2.6347   -0.5545    2.8004 C   0  0  0  0  0  0  0  0  0  0  0  0
    3.9874   -2.4092   -0.2128 C   0  0  0  0  0  0  0  0  0  0  0  0
    4.1115   -3.4260    0.7557 O   0  0  0  0  0  0  0  0  0  0  0  0
    5.5000   -2.3064   -0.3966 C   0  0  0  0  0  0  0  0  0  0  0  0
    3.8784   -0.7118   -0.8317 C   0  0  0  0  0  0  0  0  0  0  0  0
    2.6640    0.1908   -0.5489 O   0  0  0  0  0  0  0  0  0  0  0  0
   -5.1220    1.1380   -1.2893 N   0  0  0  0  0  0  0  0  0  0  0  0
   -4.7802   -1.0381    2.6813 C   0  0  0  0  0  0  0  0  0  0  0  0
   -5.5335   -0.5106    3.2014 H   0  0  0  0  0  0  0  0  0  0  0  0
   -5.1586    0.4897    2.1667 N   0  0  0  0  0  0  0  0  0  0  0  0
   -4.8816   -1.8268    3.9743 C   0  0  0  0  0  0  0  0  0  0  0  0
   -5.5172   -2.7538    4.3389 H   0  0  0  0  0  0  0  0  0  0  0  0
   -6.4882   -1.8970    3.9822 O   0  0  0  0  0  0  0  0  0  0  0  0
   -3.7561   -3.2690    3.7535 C   0  0  0  0  0  0  0  0  0  0  0  0
   -4.2390   -3.2328    4.6143 H   0  0  0  0  0  0  0  0  0  0  0  0
   -3.3138   -4.2307    4.8543 O   0  0  0  0  0  0  0  0  0  0  0  0
   -2.4186   -2.6891    3.3487 C   0  0  0  0  0  0  0  0  0  0  0  0
   -2.1010   -1.7100    3.6867 H   0  0  0  0  0  0  0  0  0  0  0  0
   -2.6298   -2.3066    1.9601 O   0  0  0  0  0  0  0  0  0  0  0  0
   -1.0222   -3.5413    3.8388 C   0  0  0  0  0  0  0  0  0  0  0  0
   -0.0944   -2.9930    3.6383 H   0  0  0  0  0  0  0  0  0  0  0  0
   -0.8114   -4.7949    3.1845 O   0  0  0  0  0  0  0  0  0  0  0  0
   -0.9679   -3.7387    5.4027 C   0  0  0  0  0  0  0  0  0  0  0  0
   -2.6608    0.5093   -3.2461 H   0  0  0  0  0  0  0  0  0  0  0  0
   -3.0918    2.1853   -3.0795 H   0  0  0  0  0  0  0  0  0  0  0  0
    0.6658    2.1412   -3.0576 H   0  0  0  0  0  0  0  0  0  0  0  0
   -0.5759    3.0426   -3.6046 H   0  0  0  0  0  0  0  0  0  0  0  0
   -2.3814    2.5285    1.0056 H   0  0  0  0  0  0  0  0  0  0  0  0
    0.8860   -3.5784   -0.8204 H   0  0  0  0  0  0  0  0  0  0  0  0
    1.2067   -1.7683    2.0642 H   0  0  0  0  0  0  0  0  0  0  0  0
    2.8911    0.2406    2.1128 H   0  0  0  0  0  0  0  0  0  0  0  0
    1.8609   -0.0976    3.4600 H   0  0  0  0  0  0  0  0  0  0  0  0
    3.5063   -0.7703    3.4285 H   0  0  0  0  0  0  0  0  0  0  0  0
    4.7090   -3.1345    1.4885 H   0  0  0  0  0  0  0  0  0  0  0  0
    5.9690   -3.3003   -0.4014 H   0  0  0  0  0  0  0  0  0  0  0  0
    5.9953   -1.7084    0.3196 H   0  0  0  0  0  0  0  0  0  0  0  0
    5.7618   -1.9472   -1.4262 H   0  0  0  0  0  0  0  0  0  0  0  0
    4.7526   -0.0383   -0.5282 H   0  0  0  0  0  0  0  0  0  0  0  0
    3.8721   -0.7918   -1.9616 H   0  0  0  0  0  0  0  0  0  0  0  0
   -5.4441    1.3664   -0.3246 H   0  0  0  0  0  0  0  0  0  0  0  0
   -5.6224    1.6641   -1.9781 H   0  0  0  0  0  0  0  0  0  0  0  0
   -6.0762    0.4816    1.7286 H   0  0  0  0  0  0  0  0  0  0  0  0
   -5.2283    1.1003    2.9702 H   0  0  0  0  0  0  0  0  0  0  0  0
   -6.8527   -0.9994    4.0210 H   0  0  0  0  0  0  0  0  0  0  0  0
   -3.9618   -4.1551    5.7476 H   0  0  0  0  0  0  0  0  0  0  0  0
    0.0688   -4.7821    2.7641 H   0  0  0  0  0  0  0  0  0  0  0  0
   -1.8208   -3.2800    5.9258 H   0  0  0  0  0  0  0  0  0  0  0  0
   -0.1582   -3.1533    5.8266 H   0  0  0  0  0  0  0  0  0  0  0  0
   -0.8694   -4.7562    5.8005 H   0  0  0  0  0  0  0  0  0  0  0  0
  1  2  1  0  0  0  0
  3  1  1  0  0  0  0
  4  3  1  0  0  0  0
  4  5  1  0  0  0  0
  6  4  1  0  0  0  0
  6  7  1  0  0  0  0
  8  6  1  0  0  0  0
  9  8  1  0  0  0  0
  9 10  1  0  0  0  0
 11  9  1  0  0  0  0
 12  9  1  0  0  0  0
 12 13  1  0  0  0  0
 14 12  1  0  0  0  0
 14 15  1  0  0  0  0
 14  4  1  0  0  0  0
 16 14  1  0  0  0  0
 17 12  1  0  0  0  0
 18 17  1  0  0  0  0
 18 19  1  0  0  0  0
 20 18  1  0  0  0  0
 20 21  1  0  0  0  0
 22 20  1  0  0  0  0
 23 20  1  0  0  0  0
 23 24  1  0  0  0  0
 25 23  1  0  0  0  0
 26 25  1  0  0  0  0
 27 23  1  0  0  0  0
 28 27  1  0  0  0  0
 29 27  1  0  0  0  0
 30 27  1  0  0  0  0
 31 30  1  0  0  0  0
 31 18  1  0  0  0  0
 32  6  1  0  0  0  0
 33  1  1  0  0  0  0
 33 34  1  0  0  0  0
 35 33  1  0  0  0  0
 36 33  1  0  0  0  0
 36 37  1  0  0  0  0
 38 36  1  0  0  0  0
 39 36  1  0  0  0  0
 39 40  1  0  0  0  0
 41 39  1  0  0  0  0
 42 39  1  0  0  0  0
 42 43  1  0  0  0  0
 44 42  1  0  0  0  0
 44  1  1  0  0  0  0
 45 42  1  0  0  0  0
 45 46  1  0  0  0  0
 47 45  1  0  0  0  0
 48 45  1  0  0  0  0
  8 49  1  0  0  0  0
  8 50  1  0  0  0  0
 11 51  1  0  0  0  0
 11 52  1  0  0  0  0
 16 53  1  0  0  0  0
 22 54  1  0  0  0  0
 25 55  1  0  0  0  0
 26 56  1  0  0  0  0
 26 57  1  0  0  0  0
 26 58  1  0  0  0  0
 28 59  1  0  0  0  0
 29 60  1  0  0  0  0
 29 61  1  0  0  0  0
 29 62  1  0  0  0  0
 30 63  1  0  0  0  0
 30 64  1  0  0  0  0
 32 65  1  0  0  0  0
 32 66  1  0  0  0  0
 35 67  1  0  0  0  0
 35 68  1  0  0  0  0
 38 69  1  0  0  0  0
 41 70  1  0  0  0  0
 47 71  1  0  0  0  0
 48 72  1  0  0  0  0
 48 73  1  0  0  0  0
 48 74  1  0  0  0  0
M  END
>  <energy>
988.31408087304112

$$$$
