REMARK  6 active torsions:
REMARK  status: ('A' for Active; 'I' for Inactive)
REMARK    1  A    between atoms: CA_5  and  N_1 
REMARK    2  A    between atoms: CA_5  and  C_6 
REMARK    3  A    between atoms: CA_5  and  CB_8 
REMARK    4  A    between atoms: CB_8  and  CG_9 
REMARK    5  A    between atoms: CG_9  and  CD_10 
REMARK    6  A    between atoms: CD_10  and  NE_11 
REMARK       I    between atoms: NE_11  and  CZ_12 
REMARK       I    between atoms: CZ_12  and  NH1_13 
ROOT
ATOM      1  CD  ARG d   1       5.124  -0.920   2.733  0.00  0.00     0.138 C 
ENDROOT
BRANCH   1   2
ATOM      2  CG  ARG d   1       4.630  -0.445   1.358  0.00  0.00     0.023 C 
BRANCH   2   3
ATOM      3  CB  ARG d   1       3.094  -0.431   1.273  0.00  0.00     0.041 C 
BRANCH   3   4
ATOM      4  CA  ARG d   1       2.547   0.087  -0.065  0.00  0.00     0.244 C 
BRANCH   4   5
ATOM      5  C   ARG d   1       2.909  -0.822  -1.228  0.00  0.00     0.263 C 
ATOM      6  O   ARG d   1       2.022  -1.447  -1.807  0.00  0.00    -0.305 OA
ENDBRANCH   4   5
BRANCH   4   7
ATOM      7  N   ARG d   1       1.037   0.142   0.015  0.00  0.00    -0.069 N 
ATOM      8  H1  ARG d   1       0.654   1.031  -0.336  0.00  0.00     0.275 HD
ATOM      9  H2  ARG d   1       0.661  -0.585  -0.630  0.00  0.00     0.275 HD
ATOM     10  H3  ARG d   1       0.632  -0.046   0.940  0.00  0.00     0.275 HD
ENDBRANCH   4   7
ENDBRANCH   3   4
ENDBRANCH   2   3
ENDBRANCH   1   2
BRANCH   1  11
ATOM     11  NE  ARG d   1       6.593  -0.950   2.799  0.00  0.00    -0.227 N 
ATOM     12  CZ  ARG d   1       7.296  -1.338   3.885  0.00  0.00     0.665 C 
ATOM     13  NH1 ARG d   1       6.696  -1.730   5.011  0.00  0.00    -0.235 N 
ATOM     14  NH2 ARG d   1       8.631  -1.332   3.842  0.00  0.00    -0.235 N 
ATOM     15 1HH1 ARG d   1       7.234  -2.019   5.822  0.00  0.00     0.174 HD
ATOM     16 2HH1 ARG d   1       5.691  -1.758   5.109  0.00  0.00     0.174 HD
ATOM     17 1HH2 ARG d   1       9.153  -1.050   3.022  0.00  0.00     0.174 HD
ATOM     18 2HH2 ARG d   1       9.185  -1.617   4.643  0.00  0.00     0.174 HD
ATOM     19  HE  ARG d   1       7.142  -0.669   1.993  0.00  0.00     0.177 HD
ENDBRANCH   1  11
TORSDOF 6
