ligand.pdb
 OpenBabel03221816513D

 27 26  0  0  1  0  0  0  0  0999 V2000
    1.0369    0.1424    0.0153 N   0  3  0  0  0  0  0  0  0  0  0  0
    0.6545    1.0311   -0.3357 H   0  0  0  0  0  0  0  0  0  0  0  0
    0.6615   -0.5854   -0.6298 H   0  0  0  0  0  0  0  0  0  0  0  0
    0.6318   -0.0463    0.9398 H   0  0  0  0  0  0  0  0  0  0  0  0
    2.5470    0.0870   -0.0646 C   0  0  2  0  0  0  0  0  0  0  0  0
    2.8837    1.1056   -0.2779 H   0  0  0  0  0  0  0  0  0  0  0  0
    2.9092   -0.8215   -1.2280 C   0  0  0  0  0  0  0  0  0  0  0  0
    2.0225   -1.4472   -1.8066 O   0  0  0  0  0  0  0  0  0  0  0  0
    3.0939   -0.4312    1.2734 C   0  0  0  0  0  0  0  0  0  0  0  0
    4.6304   -0.4454    1.3580 C   0  0  0  0  0  0  0  0  0  0  0  0
    5.1243   -0.9202    2.7328 C   0  0  0  0  0  0  0  0  0  0  0  0
    6.5929   -0.9502    2.7989 N   0  0  0  0  0  0  0  0  0  0  0  0
    7.2960   -1.3380    3.8853 C   0  0  0  0  0  0  0  0  0  0  0  0
    6.6960   -1.7305    5.0112 N   0  3  0  0  0  0  0  0  0  0  0  0
    7.2336   -2.0189    5.8217 H   0  0  0  0  0  0  0  0  0  0  0  0
    5.6909   -1.7584    5.1088 H   0  0  0  0  0  0  0  0  0  0  0  0
    8.6313   -1.3323    3.8421 N   0  0  0  0  0  0  0  0  0  0  0  0
    3.9698   -0.8784   -1.5226 H   0  0  0  0  0  0  0  0  0  0  0  0
    2.7205   -1.4466    1.4585 H   0  0  0  0  0  0  0  0  0  0  0  0
    2.7084    0.2019    2.0834 H   0  0  0  0  0  0  0  0  0  0  0  0
    5.0243    0.5582    1.1572 H   0  0  0  0  0  0  0  0  0  0  0  0
    5.0458   -1.1066    0.5889 H   0  0  0  0  0  0  0  0  0  0  0  0
    4.7546   -1.9331    2.9230 H   0  0  0  0  0  0  0  0  0  0  0  0
    4.7618   -0.2377    3.5086 H   0  0  0  0  0  0  0  0  0  0  0  0
    7.1417   -0.6694    1.9931 H   0  0  0  0  0  0  0  0  0  0  0  0
    9.1535   -1.0496    3.0223 H   0  0  0  0  0  0  0  0  0  0  0  0
    9.1848   -1.6174    4.6428 H   0  0  0  0  0  0  0  0  0  0  0  0
  1  2  1  0  0  0  0
  1  3  1  0  0  0  0
  1  4  1  0  0  0  0
  5  7  1  0  0  0  0
  5  9  1  0  0  0  0
  5  6  1  6  0  0  0
  5  1  1  0  0  0  0
  7  8  2  0  0  0  0
  7 18  1  0  0  0  0
  9 10  1  0  0  0  0
  9 19  1  0  0  0  0
  9 20  1  0  0  0  0
 10 11  1  0  0  0  0
 10 21  1  0  0  0  0
 10 22  1  0  0  0  0
 11 12  1  0  0  0  0
 11 23  1  0  0  0  0
 11 24  1  0  0  0  0
 12 13  1  0  0  0  0
 12 25  1  0  0  0  0
 13 14  2  0  0  0  0
 13 17  1  0  0  0  0
 14 15  1  0  0  0  0
 14 16  1  0  0  0  0
 17 26  1  0  0  0  0
 17 27  1  0  0  0  0
M  CHG  2   1   1  14   1
M  END
$$$$
