@<TRIPOS>MOLECULE
ligand.pdb
 27 26 0 0 0
SMALL
GASTEIGER

@<TRIPOS>ATOM
      1 N           1.0369    0.1424    0.0153 N.4     1  ARG1        0.2259
      2 H1          0.6545    1.0311   -0.3357 H       1  ARG1        0.2001
      3 H2          0.6615   -0.5854   -0.6298 H       1  ARG1        0.2001
      4 H3          0.6318   -0.0463    0.9398 H       1  ARG1        0.2001
      5 CA          2.5470    0.0870   -0.0646 C.3     1  ARG1        0.0321
      6 HA          2.8837    1.1056   -0.2779 H       1  ARG1        0.0929
      7 C           2.9092   -0.8215   -1.2280 C.2     1  ARG1        0.1675
      8 O           2.0225   -1.4472   -1.8066 O.2     1  ARG1       -0.2951
      9 CB          3.0939   -0.4312    1.2734 C.3     1  ARG1       -0.0001
     10 CG          4.6304   -0.4454    1.3580 C.3     1  ARG1       -0.0167
     11 CD          5.1243   -0.9202    2.7328 C.3     1  ARG1        0.0647
     12 NE          6.5929   -0.9502    2.7989 N.pl3   1  ARG1       -0.2787
     13 CZ          7.2960   -1.3380    3.8853 C.cat   1  ARG1        0.3410
     14 NH1         6.6960   -1.7305    5.0112 N.pl3   1  ARG1       -0.2919
     15 HH11        7.2336   -2.0189    5.8217 H       1  ARG1        0.2545
     16 HH12        5.6909   -1.7584    5.1088 H       1  ARG1        0.2545
     17 NH2         8.6313   -1.3323    3.8421 N.pl3   1  ARG1       -0.2919
     18 H           3.9698   -0.8784   -1.5226 H       1  ARG1        0.1086
     19 HB1         2.7205   -1.4466    1.4585 H       1  ARG1        0.0325
     20 HB2         2.7084    0.2019    2.0834 H       1  ARG1        0.0325
     21 HG1         5.0243    0.5582    1.1572 H       1  ARG1        0.0298
     22 HG2         5.0458   -1.1066    0.5889 H       1  ARG1        0.0298
     23 HD1         4.7546   -1.9331    2.9230 H       1  ARG1        0.0655
     24 HD2         4.7618   -0.2377    3.5086 H       1  ARG1        0.0655
     25 HE          7.1417   -0.6694    1.9931 H       1  ARG1        0.2578
     26 HH21        9.1535   -1.0496    3.0223 H       1  ARG1        0.2545
     27 HH22        9.1848   -1.6174    4.6428 H       1  ARG1        0.2545
@<TRIPOS>BOND
     1     1     2    1
     2     1     3    1
     3     1     4    1
     4     5     7    1
     5     5     9    1
     6     5     6    1
     7     5     1    1
     8     7     8    2
     9     7    18    1
    10     9    10    1
    11     9    19    1
    12     9    20    1
    13    10    11    1
    14    10    21    1
    15    10    22    1
    16    11    12    1
    17    11    23    1
    18    11    24    1
    19    12    13    1
    20    12    25    1
    21    13    14    2
    22    13    17    1
    23    14    15    1
    24    14    16    1
    25    17    26    1
    26    17    27    1
