REMARK  6 active torsions:
REMARK  status: ('A' for Active; 'I' for Inactive)
REMARK    1  A    between atoms: C_1  and  O_16 
REMARK    2  A    between atoms: C_7  and  N_13 
REMARK    3  A    between atoms: C_8  and  O_15 
REMARK    4  A    between atoms: C_17  and  O_15 
REMARK    5  A    between atoms: C_28  and  O_16 
REMARK    6  A    between atoms: C_21  and  C_22 
ROOT
ATOM      1  C   UNL d   1      -0.896  26.591  67.418  0.00  0.00     0.274 C 
ATOM      2  C   UNL d   1      -1.932  25.815  68.280  0.00  0.00     0.360 C 
ATOM      3  C   UNL d   1      -3.320  25.771  67.613  0.00  0.00     0.077 C 
ATOM      4  C   UNL d   1      -3.799  27.232  67.346  0.00  0.00     0.150 C 
ATOM      5  C   UNL d   1      -2.778  27.989  66.436  0.00  0.00     0.177 C 
ATOM      6  C   UNL d   1      -3.286  29.479  66.178  0.00  0.00     0.208 C 
ATOM      7  C   UNL d   1      -4.684  29.425  65.495  0.00  0.00     0.187 C 
ATOM      8  C   UNL d   1      -5.649  28.632  66.427  0.00  0.00     0.263 C 
ATOM      9  O   UNL d   1      -1.450  27.937  67.117  0.00  0.00    -0.327 OA
ATOM     10  O   UNL d   1      -5.149  27.277  66.694  0.00  0.00    -0.329 OA
ATOM     11  N   UNL d   1      -1.452  24.446  68.564  0.00  0.00     0.621 N 
ATOM     12  O   UNL d   1      -3.422  30.161  67.418  0.00  0.00    -0.218 OA
ENDROOT
BRANCH   8  13
ATOM     13  O   UNL d   1      -6.938  28.541  65.831  0.00  0.00    -0.302 OA
BRANCH  13  14
ATOM     14  C   UNL d   1      -7.991  28.179  66.758  0.00  0.00     0.272 C 
ATOM     15  C   UNL d   1      -9.293  27.740  66.047  0.00  0.00     0.241 C 
ATOM     16  C   UNL d   1      -9.939  28.938  65.279  0.00  0.00     0.227 C 
ATOM     17  O   UNL d   1      -8.957  26.641  65.171  0.00  0.00    -0.215 OA
ATOM     18  C   UNL d   1     -10.264  30.039  66.268  0.00  0.00     0.364 C 
ATOM     19  O   UNL d   1     -11.147  28.513  64.644  0.00  0.00    -0.218 OA
ATOM     20  C   UNL d   1      -8.947  30.499  66.962  0.00  0.00     0.190 C 
ATOM     21  N   UNL d   1     -10.898  31.171  65.550  0.00  0.00     0.622 N 
ATOM     22  O   UNL d   1      -8.312  29.333  67.650  0.00  0.00    -0.327 OA
BRANCH  20  23
ATOM     23  C   UNL d   1      -9.193  31.597  67.995  0.00  0.00     0.214 C 
ATOM     24  O   UNL d   1      -9.566  31.010  69.218  0.00  0.00    -0.218 OA
ENDBRANCH  20  23
ENDBRANCH  13  14
ENDBRANCH   8  13
BRANCH   7  25
ATOM     25  N   UNL d   1      -5.206  30.821  65.247  0.00  0.00    -0.287 NA
ATOM     26  C   UNL d   1      -4.655  31.605  64.096  0.00  0.00     0.146 C 
ENDBRANCH   7  25
BRANCH   1  27
ATOM     27  O   UNL d   1      -0.559  25.897  66.201  0.00  0.00    -0.327 OA
BRANCH  27  28
ATOM     28  C   UNL d   1       0.749  26.098  65.467  0.00  0.00     0.188 C 
ATOM     29  C   UNL d   1       1.753  25.017  65.953  0.00  0.00     0.214 C 
ATOM     30  C   UNL d   1       3.117  25.190  65.224  0.00  0.00     0.222 C 
ATOM     31  O   UNL d   1       1.955  25.154  67.377  0.00  0.00    -0.218 OA
ATOM     32  C   UNL d   1       2.900  25.040  63.698  0.00  0.00     0.337 C 
ATOM     33  O   UNL d   1       4.033  24.178  65.698  0.00  0.00    -0.218 OA
ATOM     34  C   UNL d   1       1.894  26.128  63.177  0.00  0.00     0.084 C 
ATOM     35  N   UNL d   1       4.195  25.196  62.993  0.00  0.00     0.619 N 
ATOM     36  C   UNL d   1       0.556  25.947  63.925  0.00  0.00     0.334 C 
ATOM     37  N   UNL d   1      -0.377  26.967  63.434  0.00  0.00     0.619 N 
ENDBRANCH  27  28
ENDBRANCH   1  27
TORSDOF 6
