@<TRIPOS>MOLECULE
2G5K_AM2_A_102
 37 40 0 0 0
SMALL
GASTEIGER
****
Coordinates from PDB:2G5K:A:102 Model:1 without hydrogens
@<TRIPOS>ATOM
      1 C          -0.8960   26.5910   67.4180 C.3     1  UNL1        0.2535
      2 C          -1.9320   25.8150   68.2800 C.3     1  UNL1        0.1505
      3 C          -3.3200   25.7710   67.6130 C.3     1  UNL1        0.0564
      4 C          -3.7990   27.2320   67.3460 C.3     1  UNL1        0.1491
      5 C          -2.7780   27.9890   66.4360 C.3     1  UNL1        0.1766
      6 C          -3.2860   29.4790   66.1780 C.3     1  UNL1        0.2022
      7 C          -4.6840   29.4250   65.4950 C.3     1  UNL1        0.1619
      8 C          -5.6490   28.6320   66.4270 C.3     1  UNL1        0.2562
      9 C          -4.6550   31.6050   64.0960 C.3     1  UNL1        0.1077
     10 O          -1.4500   27.9370   67.1170 O.3     1  UNL1       -0.3267
     11 O          -5.1490   27.2770   66.6940 O.3     1  UNL1       -0.3292
     12 N          -1.4520   24.4460   68.5640 N.3     1  UNL1       -0.1275
     13 N          -5.2060   30.8210   65.2470 N.3     1  UNL1       -0.2103
     14 O          -3.4220   30.1610   67.4180 O.3     1  UNL1       -0.2188
     15 O          -6.9380   28.5410   65.8310 O.3     1  UNL1       -0.3025
     16 O          -0.5590   25.8970   66.2010 O.3     1  UNL1       -0.3277
     17 C          -7.9910   28.1790   66.7580 C.3     1  UNL1        0.2712
     18 C          -9.2930   27.7400   66.0470 C.3     1  UNL1        0.2395
     19 C          -9.9390   28.9380   65.2790 C.3     1  UNL1        0.2071
     20 C         -10.2640   30.0390   66.2680 C.3     1  UNL1        0.1545
     21 C          -8.9470   30.4990   66.9620 C.3     1  UNL1        0.1707
     22 C          -9.1930   31.5970   67.9950 C.3     1  UNL1        0.2131
     23 O          -8.3120   29.3330   67.6500 O.3     1  UNL1       -0.3267
     24 N         -10.8980   31.1710   65.5500 N.3     1  UNL1       -0.1275
     25 O          -8.9570   26.6410   65.1710 O.3     1  UNL1       -0.2149
     26 O         -11.1470   28.5130   64.6440 O.3     1  UNL1       -0.2186
     27 O          -9.5660   31.0100   69.2180 O.3     1  UNL1       -0.2176
     28 C           0.7490   26.0980   65.4670 C.3     1  UNL1        0.1681
     29 C           1.7530   25.0170   65.9530 C.3     1  UNL1        0.2119
     30 C           3.1170   25.1900   65.2240 C.3     1  UNL1        0.2020
     31 C           2.9000   25.0400   63.6980 C.3     1  UNL1        0.1262
     32 C           1.8940   26.1280   63.1770 C.3     1  UNL1        0.0433
     33 C           0.5560   25.9470   63.9250 C.3     1  UNL1        0.1231
     34 N           4.1950   25.1960   62.9930 N.3     1  UNL1       -0.1301
     35 N          -0.3770   26.9670   63.4340 N.3     1  UNL1       -0.1302
     36 O           1.9550   25.1540   67.3770 O.3     1  UNL1       -0.2177
     37 O           4.0330   24.1780   65.6980 O.3     1  UNL1       -0.2188
@<TRIPOS>BOND
     1     1     2    1
     2     1    10    1
     3     1    16    1
     4     2     3    1
     5     2    12    1
     6     4     3    1
     7     4     5    1
     8     4    11    1
     9     5     6    1
    10     5    10    1
    11     6     7    1
    12     6    14    1
    13     7     8    1
    14     7    13    1
    15     8    11    1
    16     8    15    1
    17     9    13    1
    18    17    15    1
    19    17    18    1
    20    17    23    1
    21    18    19    1
    22    18    25    1
    23    19    20    1
    24    19    26    1
    25    20    21    1
    26    20    24    1
    27    21    22    1
    28    21    23    1
    29    22    27    1
    30    28    16    1
    31    28    29    1
    32    28    33    1
    33    29    30    1
    34    29    36    1
    35    30    31    1
    36    30    37    1
    37    31    32    1
    38    31    34    1
    39    32    33    1
    40    33    35    1
