2G5K_AM2_A_102
 OpenBabel10091713573D
Coordinates from PDB:2G5K:A:102 Model:1 without hydrogens
 78 81  0  0  0  0  0  0  0  0999 V2000
   -0.8960   26.5910   67.4180 C   0  0  2  0  0  0  0  0  0  0  0  0
   -1.9320   25.8150   68.2800 C   0  0  1  0  0  0  0  0  0  0  0  0
   -3.3200   25.7710   67.6130 C   0  0  0  0  0  0  0  0  0  0  0  0
   -3.7990   27.2320   67.3460 C   0  0  1  0  0  0  0  0  0  0  0  0
   -2.7780   27.9890   66.4360 C   0  0  1  0  0  0  0  0  0  0  0  0
   -3.2860   29.4790   66.1780 C   0  0  1  0  0  0  0  0  0  0  0  0
   -4.6840   29.4250   65.4950 C   0  0  1  0  0  0  0  0  0  0  0  0
   -5.6490   28.6320   66.4270 C   0  0  2  0  0  0  0  0  0  0  0  0
   -4.6550   31.6050   64.0960 C   0  0  0  0  0  0  0  0  0  0  0  0
   -1.4500   27.9370   67.1170 O   0  0  0  0  0  0  0  0  0  0  0  0
   -5.1490   27.2770   66.6940 O   0  0  0  0  0  0  0  0  0  0  0  0
   -1.4520   24.4460   68.5640 N   0  0  0  0  0  0  0  0  0  0  0  0
   -5.2060   30.8210   65.2470 N   0  0  0  0  0  0  0  0  0  0  0  0
   -3.4220   30.1610   67.4180 O   0  0  0  0  0  0  0  0  0  0  0  0
   -6.9380   28.5410   65.8310 O   0  0  0  0  0  0  0  0  0  0  0  0
   -0.5590   25.8970   66.2010 O   0  0  0  0  0  0  0  0  0  0  0  0
   -7.9910   28.1790   66.7580 C   0  0  2  0  0  0  0  0  0  0  0  0
   -9.2930   27.7400   66.0470 C   0  0  1  0  0  0  0  0  0  0  0  0
   -9.9390   28.9380   65.2790 C   0  0  2  0  0  0  0  0  0  0  0  0
  -10.2640   30.0390   66.2680 C   0  0  1  0  0  0  0  0  0  0  0  0
   -8.9470   30.4990   66.9620 C   0  0  1  0  0  0  0  0  0  0  0  0
   -9.1930   31.5970   67.9950 C   0  0  0  0  0  0  0  0  0  0  0  0
   -8.3120   29.3330   67.6500 O   0  0  0  0  0  0  0  0  0  0  0  0
  -10.8980   31.1710   65.5500 N   0  0  0  0  0  0  0  0  0  0  0  0
   -8.9570   26.6410   65.1710 O   0  0  0  0  0  0  0  0  0  0  0  0
  -11.1470   28.5130   64.6440 O   0  0  0  0  0  0  0  0  0  0  0  0
   -9.5660   31.0100   69.2180 O   0  0  0  0  0  0  0  0  0  0  0  0
    0.7490   26.0980   65.4670 C   0  0  1  0  0  0  0  0  0  0  0  0
    1.7530   25.0170   65.9530 C   0  0  1  0  0  0  0  0  0  0  0  0
    3.1170   25.1900   65.2240 C   0  0  2  0  0  0  0  0  0  0  0  0
    2.9000   25.0400   63.6980 C   0  0  1  0  0  0  0  0  0  0  0  0
    1.8940   26.1280   63.1770 C   0  0  0  0  0  0  0  0  0  0  0  0
    0.5560   25.9470   63.9250 C   0  0  2  0  0  0  0  0  0  0  0  0
    4.1950   25.1960   62.9930 N   0  0  0  0  0  0  0  0  0  0  0  0
   -0.3770   26.9670   63.4340 N   0  0  0  0  0  0  0  0  0  0  0  0
    1.9550   25.1540   67.3770 O   0  0  0  0  0  0  0  0  0  0  0  0
    4.0330   24.1780   65.6980 O   0  0  0  0  0  0  0  0  0  0  0  0
    0.0137   26.6758   67.9749 H   0  0  0  0  0  0  0  0  0  0  0  0
   -2.0365   26.3445   69.2039 H   0  0  0  0  0  0  0  0  0  0  0  0
   -4.0144   25.2781   68.2609 H   0  0  0  0  0  0  0  0  0  0  0  0
   -3.2615   25.2341   66.6893 H   0  0  0  0  0  0  0  0  0  0  0  0
   -3.8668   27.7087   68.3015 H   0  0  0  0  0  0  0  0  0  0  0  0
   -2.6875   27.5328   65.4724 H   0  0  0  0  0  0  0  0  0  0  0  0
   -2.5807   29.9898   65.5562 H   0  0  0  0  0  0  0  0  0  0  0  0
   -4.6114   28.9359   64.5461 H   0  0  0  0  0  0  0  0  0  0  0  0
   -5.7088   29.1624   67.3544 H   0  0  0  0  0  0  0  0  0  0  0  0
   -5.1263   32.5649   64.0601 H   0  0  0  0  0  0  0  0  0  0  0  0
   -4.8452   31.0800   63.1833 H   0  0  0  0  0  0  0  0  0  0  0  0
   -3.5999   31.7302   64.2223 H   0  0  0  0  0  0  0  0  0  0  0  0
   -1.3493   23.9332   67.6883 H   0  0  0  0  0  0  0  0  0  0  0  0
   -2.1254   23.9667   69.1617 H   0  0  0  0  0  0  0  0  0  0  0  0
   -5.0255   31.3628   66.0922 H   0  0  0  0  0  0  0  0  0  0  0  0
   -4.0624   29.6926   67.9761 H   0  0  0  0  0  0  0  0  0  0  0  0
   -7.6205   27.3488   67.3222 H   0  0  0  0  0  0  0  0  0  0  0  0
  -10.0270   27.4181   66.7558 H   0  0  0  0  0  0  0  0  0  0  0  0
   -9.2547   29.2951   64.5380 H   0  0  0  0  0  0  0  0  0  0  0  0
  -10.9445   29.6816   67.0124 H   0  0  0  0  0  0  0  0  0  0  0  0
   -8.3060   30.8915   66.2005 H   0  0  0  0  0  0  0  0  0  0  0  0
   -9.9771   32.2399   67.6533 H   0  0  0  0  0  0  0  0  0  0  0  0
   -8.2988   32.1689   68.1300 H   0  0  0  0  0  0  0  0  0  0  0  0
  -10.2590   31.5217   64.8365 H   0  0  0  0  0  0  0  0  0  0  0  0
  -11.1109   31.9171   66.2121 H   0  0  0  0  0  0  0  0  0  0  0  0
   -8.2916   26.9319   64.5280 H   0  0  0  0  0  0  0  0  0  0  0  0
  -11.7682   28.1890   65.3148 H   0  0  0  0  0  0  0  0  0  0  0  0
  -10.3767   30.4920   69.0941 H   0  0  0  0  0  0  0  0  0  0  0  0
    1.1128   27.0837   65.6690 H   0  0  0  0  0  0  0  0  0  0  0  0
    1.3556   24.0481   65.7335 H   0  0  0  0  0  0  0  0  0  0  0  0
    3.5250   26.1585   65.4254 H   0  0  0  0  0  0  0  0  0  0  0  0
    2.4950   24.0687   63.5045 H   0  0  0  0  0  0  0  0  0  0  0  0
    1.7403   26.0049   62.1253 H   0  0  0  0  0  0  0  0  0  0  0  0
    2.2860   27.1079   63.3535 H   0  0  0  0  0  0  0  0  0  0  0  0
    0.1730   24.9646   63.7432 H   0  0  0  0  0  0  0  0  0  0  0  0
    4.5752   26.1235   63.1816 H   0  0  0  0  0  0  0  0  0  0  0  0
    4.0512   25.0852   61.9893 H   0  0  0  0  0  0  0  0  0  0  0  0
    0.0062   27.8945   63.6167 H   0  0  0  0  0  0  0  0  0  0  0  0
   -1.2718   26.8683   63.9135 H   0  0  0  0  0  0  0  0  0  0  0  0
    2.3152   26.0339   67.5693 H   0  0  0  0  0  0  0  0  0  0  0  0
    3.6655   23.2988   65.5166 H   0  0  0  0  0  0  0  0  0  0  0  0
  1  2  1  0  0  0  0
  1 10  1  0  0  0  0
  1 16  1  0  0  0  0
  1 38  1  1  0  0  0
  2  3  1  0  0  0  0
  2 12  1  0  0  0  0
  2 39  1  1  0  0  0
  3  4  1  0  0  0  0
  3 40  1  0  0  0  0
  3 41  1  0  0  0  0
  4  5  1  0  0  0  0
  4 11  1  0  0  0  0
  4 42  1  1  0  0  0
  5  6  1  0  0  0  0
  5 10  1  0  0  0  0
  5 43  1  6  0  0  0
  6  7  1  0  0  0  0
  6 14  1  0  0  0  0
  6 44  1  6  0  0  0
  7  8  1  0  0  0  0
  7 13  1  0  0  0  0
  7 45  1  6  0  0  0
  8 11  1  0  0  0  0
  8 15  1  0  0  0  0
  8 46  1  1  0  0  0
  9 13  1  0  0  0  0
  9 47  1  0  0  0  0
  9 48  1  0  0  0  0
  9 49  1  0  0  0  0
 12 50  1  0  0  0  0
 12 51  1  0  0  0  0
 13 52  1  0  0  0  0
 14 53  1  0  0  0  0
 15 17  1  0  0  0  0
 16 28  1  0  0  0  0
 17 18  1  0  0  0  0
 17 23  1  0  0  0  0
 17 54  1  1  0  0  0
 18 19  1  0  0  0  0
 18 25  1  0  0  0  0
 18 55  1  1  0  0  0
 19 20  1  0  0  0  0
 19 26  1  0  0  0  0
 19 56  1  6  0  0  0
 20 21  1  0  0  0  0
 20 24  1  0  0  0  0
 20 57  1  1  0  0  0
 21 22  1  0  0  0  0
 21 23  1  0  0  0  0
 21 58  1  6  0  0  0
 22 27  1  0  0  0  0
 22 59  1  0  0  0  0
 22 60  1  0  0  0  0
 24 61  1  0  0  0  0
 24 62  1  0  0  0  0
 25 63  1  0  0  0  0
 26 64  1  0  0  0  0
 27 65  1  0  0  0  0
 28 29  1  0  0  0  0
 28 33  1  0  0  0  0
 28 66  1  1  0  0  0
 29 30  1  0  0  0  0
 29 36  1  0  0  0  0
 29 67  1  6  0  0  0
 30 31  1  0  0  0  0
 30 37  1  0  0  0  0
 30 68  1  1  0  0  0
 31 32  1  0  0  0  0
 31 34  1  0  0  0  0
 31 69  1  6  0  0  0
 32 33  1  0  0  0  0
 32 70  1  0  0  0  0
 32 71  1  0  0  0  0
 33 35  1  0  0  0  0
 33 72  1  6  0  0  0
 34 73  1  0  0  0  0
 34 74  1  0  0  0  0
 35 75  1  0  0  0  0
 35 76  1  0  0  0  0
 36 77  1  0  0  0  0
 37 78  1  0  0  0  0
A    1
CA1
A    2
CA2
A    3
CA3
A    4
CA4
A    5
CA5
A    6
CA6
A    7
CA7
A    8
CA8
A    9
CA9
A   10
OA4
A   11
OA5
A   12
NA2
A   13
NA7
A   14
OA6
A   15
OA8
A   16
OA1
A   17
CB1
A   18
CB2
A   19
CB3
A   20
CB4
A   21
CB5
A   22
CB6
A   23
OB1
A   24
NB4
A   25
OB2
A   26
OB3
A   27
OB6
A   28
CC1
A   29
CC2
A   30
CC3
A   31
CC4
A   32
CC5
A   33
CC6
A   34
NC4
A   35
NC6
A   36
OC2
A   37
OC3
M  END
>  <InstanceId>
2G5K_AM2_A_102

>  <ChemCompId>
AM2

>  <PdbId>
2G5K

>  <ChainId>
A

>  <ResidueNumber>
102

>  <InsertionCode>


>  <Model>
1

>  <AltIds>


>  <MissingHeavyAtoms>
0

>  <ObservedFormula>
C21 N5 O11

>  <Name>
APRAMYCIN

>  <SystematicName>
(2R,3R,4S,5S,6S)-2-[[(2R,3S,4R,4aR,6S,7R,8aS)-7-amino-6-[(1R,2R,3S,4R,6S)-4,6-diamino-2,3-dihydroxy-cyclohexyl]oxy-4-hydroxy-3-methylamino-2,3,4,4a,6,7,8,8a-octahydropyrano[2,3-e]pyran-2-yl]oxy]-5-amino-6-(hydroxymethyl)oxane-3,4-diol

>  <Synonyms>
NEBRAMYCIN II, 4-O-(3ALPHA-AMINO-6ALPHA-((4-AMINO-4-DEOXY-ALPHA-D-GLUCOPYRANOSYL)OXY)-2,3,4,5ABETA,6,7,8,8AALPHA-OCTAHYDRO-8BETA-HYDROXY-7BETA-(METHYLAMINO)PYRANO(3,2-B)PYRAN-2ALPHA-YL)-2-DEOXY-D-STREPTAMINE

>  <Type>
NON-POLYMER

>  <Formula>
C21 H41 N5 O11

>  <MolecularWeight>
539.577

>  <ModifiedDate>
2011-06-04

>  <Parent>


>  <OneLetterCode>


>  <SubcomponentList>


>  <AmbiguousFlag>
N

>  <InChI>
InChI=1S/C21H41N5O11/c1-26-11-14(30)18-8(33-20(11)37-21-16(32)13(29)10(25)9(4-27)34-21)3-7(24)19(36-18)35-17-6(23)2-5(22)12(28)15(17)31/h5-21,26-32H,2-4,22-25H2,1H3/t5-,6+,7-,8+,9-,10-,11+,12+,13+,14-,15-,16-,17-,18+,19+,20-,21-/m1/s1

>  <InChIKey>
XZNUGFQTQHRASN-XQENGBIVSA-N

>  <SMILES>
CN[C@H]1[C@H]([C@@H]2[C@H](C[C@H]([C@H](O2)O[C@@H]3[C@H](C[C@H]([C@@H]([C@H]3O)O)N)N)N)O[C@@H]1O[C@@H]4[C@@H]([C@H]([C@@H]([C@H](O4)CO)N)O)O)O

$$$$
