1YRJ_AM2_A_151
 OpenBabel10091713573D
Coordinates from PDB:1YRJ:A:151 Model:1 without hydrogens
 78 81  0  0  1  0  0  0  0  0999 V2000
   28.3550   -2.3670   35.4950 C   0  0  2  0  0  0  0  0  0  0  0  0
   28.6600   -0.8540   35.6840 C   0  0  1  0  0  0  0  0  0  0  0  0
   27.3670   -0.0220   35.8450 C   0  0  0  0  0  0  0  0  0  0  0  0
   26.4460   -0.3000   34.6440 C   0  0  1  0  0  0  0  0  0  0  0  0
   26.1190   -1.8430   34.5680 C   0  0  1  0  0  0  0  0  0  0  0  0
   25.1530   -2.1920   33.3960 C   0  0  1  0  0  0  0  0  0  0  0  0
   23.8800   -1.2870   33.4540 C   0  0  1  0  0  0  0  0  0  0  0  0
   24.2920    0.2530   33.5880 C   0  0  2  0  0  0  0  0  0  0  0  0
   22.2920   -2.9310   32.2670 C   0  0  0  0  0  0  0  0  0  0  0  0
   27.3810   -2.6110   34.4460 O   0  0  0  0  0  0  0  0  0  0  0  0
   25.2090    0.4780   34.7420 O   0  0  0  0  0  0  0  0  0  0  0  0
   29.5980   -0.6100   36.8320 N   0  0  0  0  0  0  0  0  0  0  0  0
   22.9780   -1.5980   32.2790 N   0  0  0  0  0  0  0  0  0  0  0  0
   25.8400   -2.1040   32.1640 O   0  0  0  0  0  0  0  0  0  0  0  0
   23.1570    1.1200   33.7790 O   0  0  0  0  0  0  0  0  0  0  0  0
   27.8930   -3.0060   36.6790 O   0  0  0  0  0  0  0  0  0  0  0  0
   23.4170    2.4970   33.3760 C   0  0  2  0  0  0  0  0  0  0  0  0
   22.2600    3.5030   33.6980 C   0  0  1  0  0  0  0  0  0  0  0  0
   21.0120    3.2450   32.7930 C   0  0  2  0  0  0  0  0  0  0  0  0
   21.4570    3.3710   31.3030 C   0  0  1  0  0  0  0  0  0  0  0  0
   22.5980    2.3140   30.9900 C   0  0  1  0  0  0  0  0  0  0  0  0
   23.1660    2.3690   29.5490 C   0  0  0  0  0  0  0  0  0  0  0  0
   23.7270    2.5250   31.9070 O   0  0  0  0  0  0  0  0  0  0  0  0
   20.2810    3.1630   30.4280 N   0  0  0  0  0  0  0  0  0  0  0  0
   21.9510    3.4240   35.0940 O   0  0  0  0  0  0  0  0  0  0  0  0
   19.9870    4.2070   33.0950 O   0  0  0  0  0  0  0  0  0  0  0  0
   22.4760    1.5090   28.6230 O   0  0  0  0  0  0  0  0  0  0  0  0
   28.1190   -4.4590   36.8250 C   0  0  1  0  0  0  0  0  0  0  0  0
   29.5710   -4.6470   37.3410 C   0  0  1  0  0  0  0  0  0  0  0  0
   29.8720   -6.1580   37.5250 C   0  0  2  0  0  0  0  0  0  0  0  0
   28.8770   -6.7760   38.5400 C   0  0  1  0  0  0  0  0  0  0  0  0
   27.4060   -6.6190   38.0190 C   0  0  0  0  0  0  0  0  0  0  0  0
   27.1100   -5.1060   37.8340 C   0  0  2  0  0  0  0  0  0  0  0  0
   29.1690   -8.2020   38.7250 N   0  0  0  0  0  0  0  0  0  0  0  0
   25.7360   -4.9700   37.3500 N   0  0  0  0  0  0  0  0  0  0  0  0
   30.4770   -4.0710   36.3910 O   0  0  0  0  0  0  0  0  0  0  0  0
   31.2040   -6.2820   37.9970 O   0  0  0  0  0  0  0  0  0  0  0  0
   29.3000   -2.7876   35.2214 H   0  0  0  0  0  0  0  0  0  0  0  0
   29.1488   -0.5278   34.7898 H   0  0  0  0  0  0  0  0  0  0  0  0
   27.6111    1.0193   35.8776 H   0  0  0  0  0  0  0  0  0  0  0  0
   26.8712   -0.2926   36.7538 H   0  0  0  0  0  0  0  0  0  0  0  0
   26.9530   -0.0032   33.7497 H   0  0  0  0  0  0  0  0  0  0  0  0
   25.6147   -2.1133   35.4721 H   0  0  0  0  0  0  0  0  0  0  0  0
   24.8128   -3.2019   33.4923 H   0  0  0  0  0  0  0  0  0  0  0  0
   23.3072   -1.5013   34.3320 H   0  0  0  0  0  0  0  0  0  0  0  0
   24.7756    0.4891   32.6632 H   0  0  0  0  0  0  0  0  0  0  0  0
   21.6913   -3.0151   31.3855 H   0  0  0  0  0  0  0  0  0  0  0  0
   21.6694   -3.0195   33.1327 H   0  0  0  0  0  0  0  0  0  0  0  0
   23.0257   -3.7098   32.2742 H   0  0  0  0  0  0  0  0  0  0  0  0
   29.1577   -0.9123   37.7010 H   0  0  0  0  0  0  0  0  0  0  0  0
   29.8143    0.3852   36.8887 H   0  0  0  0  0  0  0  0  0  0  0  0
   23.5459   -1.5390   31.4338 H   0  0  0  0  0  0  0  0  0  0  0  0
   26.1656   -1.1988   32.0393 H   0  0  0  0  0  0  0  0  0  0  0  0
   24.2506    2.8298   33.9585 H   0  0  0  0  0  0  0  0  0  0  0  0
   22.5789    4.5004   33.4779 H   0  0  0  0  0  0  0  0  0  0  0  0
   20.6157    2.2671   32.9704 H   0  0  0  0  0  0  0  0  0  0  0  0
   21.8536    4.3477   31.1195 H   0  0  0  0  0  0  0  0  0  0  0  0
   22.1291    1.3600   31.1125 H   0  0  0  0  0  0  0  0  0  0  0  0
   24.1948    2.0764   29.5798 H   0  0  0  0  0  0  0  0  0  0  0  0
   23.0378    3.3723   29.1998 H   0  0  0  0  0  0  0  0  0  0  0  0
   19.8937    2.2341   30.5941 H   0  0  0  0  0  0  0  0  0  0  0  0
   20.5652    3.2433   29.4517 H   0  0  0  0  0  0  0  0  0  0  0  0
   21.6597    2.5244   35.3103 H   0  0  0  0  0  0  0  0  0  0  0  0
   20.3277    5.1019   32.9400 H   0  0  0  0  0  0  0  0  0  0  0  0
   22.5698    0.5863   28.9072 H   0  0  0  0  0  0  0  0  0  0  0  0
   27.9703   -4.9418   35.8818 H   0  0  0  0  0  0  0  0  0  0  0  0
   29.6890   -4.1605   38.2867 H   0  0  0  0  0  0  0  0  0  0  0  0
   29.7620   -6.6789   36.5968 H   0  0  0  0  0  0  0  0  0  0  0  0
   28.9820   -6.2633   39.4733 H   0  0  0  0  0  0  0  0  0  0  0  0
   26.7243   -7.0362   38.7304 H   0  0  0  0  0  0  0  0  0  0  0  0
   27.2892   -7.1328   37.0878 H   0  0  0  0  0  0  0  0  0  0  0  0
   27.2239   -4.5951   38.7672 H   0  0  0  0  0  0  0  0  0  0  0  0
   29.0681   -8.6881   37.8340 H   0  0  0  0  0  0  0  0  0  0  0  0
   28.5179   -8.5971   39.4035 H   0  0  0  0  0  0  0  0  0  0  0  0
   25.6386   -5.4602   36.4609 H   0  0  0  0  0  0  0  0  0  0  0  0
   25.5178   -3.9822   37.2193 H   0  0  0  0  0  0  0  0  0  0  0  0
   30.3701   -4.5120   35.5337 H   0  0  0  0  0  0  0  0  0  0  0  0
   31.2945   -5.8073   38.8380 H   0  0  0  0  0  0  0  0  0  0  0  0
  1  2  1  0  0  0  0
  1 10  1  0  0  0  0
  1 16  1  0  0  0  0
  1 38  1  6  0  0  0
  2  3  1  0  0  0  0
  2 12  1  0  0  0  0
  2 39  1  6  0  0  0
  3  4  1  0  0  0  0
  3 40  1  0  0  0  0
  3 41  1  0  0  0  0
  4  5  1  0  0  0  0
  4 11  1  0  0  0  0
  4 42  1  6  0  0  0
  5  6  1  0  0  0  0
  5 10  1  0  0  0  0
  5 43  1  1  0  0  0
  6  7  1  0  0  0  0
  6 14  1  0  0  0  0
  6 44  1  1  0  0  0
  7  8  1  0  0  0  0
  7 13  1  0  0  0  0
  7 45  1  1  0  0  0
  8 11  1  0  0  0  0
  8 15  1  0  0  0  0
  8 46  1  6  0  0  0
  9 13  1  0  0  0  0
  9 47  1  0  0  0  0
  9 48  1  0  0  0  0
  9 49  1  0  0  0  0
 12 50  1  0  0  0  0
 12 51  1  0  0  0  0
 13 52  1  0  0  0  0
 14 53  1  0  0  0  0
 15 17  1  0  0  0  0
 16 28  1  0  0  0  0
 17 18  1  0  0  0  0
 17 23  1  0  0  0  0
 17 54  1  1  0  0  0
 18 19  1  0  0  0  0
 18 25  1  0  0  0  0
 18 55  1  6  0  0  0
 19 20  1  0  0  0  0
 19 26  1  0  0  0  0
 19 56  1  1  0  0  0
 20 21  1  0  0  0  0
 20 24  1  0  0  0  0
 20 57  1  6  0  0  0
 21 22  1  0  0  0  0
 21 23  1  0  0  0  0
 21 58  1  1  0  0  0
 22 27  1  0  0  0  0
 22 59  1  0  0  0  0
 22 60  1  0  0  0  0
 24 61  1  0  0  0  0
 24 62  1  0  0  0  0
 25 63  1  0  0  0  0
 26 64  1  0  0  0  0
 27 65  1  0  0  0  0
 28 29  1  0  0  0  0
 28 33  1  0  0  0  0
 28 66  1  6  0  0  0
 29 30  1  0  0  0  0
 29 36  1  0  0  0  0
 29 67  1  1  0  0  0
 30 31  1  0  0  0  0
 30 37  1  0  0  0  0
 30 68  1  6  0  0  0
 31 32  1  0  0  0  0
 31 34  1  0  0  0  0
 31 69  1  1  0  0  0
 32 33  1  0  0  0  0
 32 70  1  0  0  0  0
 32 71  1  0  0  0  0
 33 35  1  0  0  0  0
 33 72  1  1  0  0  0
 34 73  1  0  0  0  0
 34 74  1  0  0  0  0
 35 75  1  0  0  0  0
 35 76  1  0  0  0  0
 36 77  1  0  0  0  0
 37 78  1  0  0  0  0
M  END
$$$$
