REMARK  6 active torsions:
REMARK  status: ('A' for Active; 'I' for Inactive)
REMARK    1  A    between atoms: C_1  and  O_16 
REMARK    2  A    between atoms: C_7  and  N_13 
REMARK    3  A    between atoms: C_8  and  O_15 
REMARK    4  A    between atoms: C_17  and  O_15 
REMARK    5  A    between atoms: C_28  and  O_16 
REMARK    6  A    between atoms: C_21  and  C_22 
ROOT
ATOM      1  C   UNL d   1      28.355  -2.367  35.495  0.00  0.00     0.274 C 
ATOM      2  C   UNL d   1      28.660  -0.854  35.684  0.00  0.00     0.360 C 
ATOM      3  C   UNL d   1      27.367  -0.022  35.845  0.00  0.00     0.077 C 
ATOM      4  C   UNL d   1      26.446  -0.300  34.644  0.00  0.00     0.150 C 
ATOM      5  C   UNL d   1      26.119  -1.843  34.568  0.00  0.00     0.177 C 
ATOM      6  C   UNL d   1      25.153  -2.192  33.396  0.00  0.00     0.208 C 
ATOM      7  C   UNL d   1      23.880  -1.287  33.454  0.00  0.00     0.187 C 
ATOM      8  C   UNL d   1      24.292   0.253  33.588  0.00  0.00     0.263 C 
ATOM      9  O   UNL d   1      27.381  -2.611  34.446  0.00  0.00    -0.327 OA
ATOM     10  O   UNL d   1      25.209   0.478  34.742  0.00  0.00    -0.329 OA
ATOM     11  N   UNL d   1      29.598  -0.610  36.832  0.00  0.00     0.621 N 
ATOM     12  O   UNL d   1      25.840  -2.104  32.164  0.00  0.00    -0.218 OA
ENDROOT
BRANCH   8  13
ATOM     13  O   UNL d   1      23.157   1.120  33.779  0.00  0.00    -0.302 OA
BRANCH  13  14
ATOM     14  C   UNL d   1      23.417   2.497  33.376  0.00  0.00     0.272 C 
ATOM     15  C   UNL d   1      22.260   3.503  33.698  0.00  0.00     0.241 C 
ATOM     16  C   UNL d   1      21.012   3.245  32.793  0.00  0.00     0.227 C 
ATOM     17  O   UNL d   1      21.951   3.424  35.094  0.00  0.00    -0.215 OA
ATOM     18  C   UNL d   1      21.457   3.371  31.303  0.00  0.00     0.364 C 
ATOM     19  O   UNL d   1      19.987   4.207  33.095  0.00  0.00    -0.218 OA
ATOM     20  C   UNL d   1      22.598   2.314  30.990  0.00  0.00     0.190 C 
ATOM     21  N   UNL d   1      20.281   3.163  30.428  0.00  0.00     0.622 N 
ATOM     22  O   UNL d   1      23.727   2.525  31.907  0.00  0.00    -0.327 OA
BRANCH  20  23
ATOM     23  C   UNL d   1      23.166   2.369  29.549  0.00  0.00     0.214 C 
ATOM     24  O   UNL d   1      22.476   1.509  28.623  0.00  0.00    -0.218 OA
ENDBRANCH  20  23
ENDBRANCH  13  14
ENDBRANCH   8  13
BRANCH   7  25
ATOM     25  N   UNL d   1      22.978  -1.598  32.279  0.00  0.00    -0.287 NA
ATOM     26  C   UNL d   1      22.292  -2.931  32.267  0.00  0.00     0.146 C 
ENDBRANCH   7  25
BRANCH   1  27
ATOM     27  O   UNL d   1      27.893  -3.006  36.679  0.00  0.00    -0.327 OA
BRANCH  27  28
ATOM     28  C   UNL d   1      28.119  -4.459  36.825  0.00  0.00     0.188 C 
ATOM     29  C   UNL d   1      29.571  -4.647  37.341  0.00  0.00     0.214 C 
ATOM     30  C   UNL d   1      29.872  -6.158  37.525  0.00  0.00     0.222 C 
ATOM     31  O   UNL d   1      30.477  -4.071  36.391  0.00  0.00    -0.218 OA
ATOM     32  C   UNL d   1      28.877  -6.776  38.540  0.00  0.00     0.337 C 
ATOM     33  O   UNL d   1      31.204  -6.282  37.997  0.00  0.00    -0.218 OA
ATOM     34  C   UNL d   1      27.406  -6.619  38.019  0.00  0.00     0.084 C 
ATOM     35  N   UNL d   1      29.169  -8.202  38.725  0.00  0.00     0.619 N 
ATOM     36  C   UNL d   1      27.110  -5.106  37.834  0.00  0.00     0.334 C 
ATOM     37  N   UNL d   1      25.736  -4.970  37.350  0.00  0.00     0.619 N 
ENDBRANCH  27  28
ENDBRANCH   1  27
TORSDOF 6
