1YRJ_AM2_A_151
 OpenBabel10091713573D
Coordinates from PDB:1YRJ:A:151 Model:1 without hydrogens
 37 40  0  0  0  0  0  0  0  0999 V2000
   28.3550   -2.3670   35.4950 C   0  0  2  0  0  0  0  0  0  0  0  0
   28.6600   -0.8540   35.6840 C   0  0  1  0  0  0  0  0  0  0  0  0
   27.3670   -0.0220   35.8450 C   0  0  0  0  0  0  0  0  0  0  0  0
   26.4460   -0.3000   34.6440 C   0  0  1  0  0  0  0  0  0  0  0  0
   26.1190   -1.8430   34.5680 C   0  0  1  0  0  0  0  0  0  0  0  0
   25.1530   -2.1920   33.3960 C   0  0  1  0  0  0  0  0  0  0  0  0
   23.8800   -1.2870   33.4540 C   0  0  1  0  0  0  0  0  0  0  0  0
   24.2920    0.2530   33.5880 C   0  0  2  0  0  0  0  0  0  0  0  0
   22.2920   -2.9310   32.2670 C   0  0  0  0  0  0  0  0  0  0  0  0
   27.3810   -2.6110   34.4460 O   0  0  0  0  0  0  0  0  0  0  0  0
   25.2090    0.4780   34.7420 O   0  0  0  0  0  0  0  0  0  0  0  0
   29.5980   -0.6100   36.8320 N   0  0  0  0  0  0  0  0  0  0  0  0
   22.9780   -1.5980   32.2790 N   0  0  0  0  0  0  0  0  0  0  0  0
   25.8400   -2.1040   32.1640 O   0  0  0  0  0  0  0  0  0  0  0  0
   23.1570    1.1200   33.7790 O   0  0  0  0  0  0  0  0  0  0  0  0
   27.8930   -3.0060   36.6790 O   0  0  0  0  0  0  0  0  0  0  0  0
   23.4170    2.4970   33.3760 C   0  0  2  0  0  0  0  0  0  0  0  0
   22.2600    3.5030   33.6980 C   0  0  1  0  0  0  0  0  0  0  0  0
   21.0120    3.2450   32.7930 C   0  0  2  0  0  0  0  0  0  0  0  0
   21.4570    3.3710   31.3030 C   0  0  1  0  0  0  0  0  0  0  0  0
   22.5980    2.3140   30.9900 C   0  0  1  0  0  0  0  0  0  0  0  0
   23.1660    2.3690   29.5490 C   0  0  0  0  0  0  0  0  0  0  0  0
   23.7270    2.5250   31.9070 O   0  0  0  0  0  0  0  0  0  0  0  0
   20.2810    3.1630   30.4280 N   0  0  0  0  0  0  0  0  0  0  0  0
   21.9510    3.4240   35.0940 O   0  0  0  0  0  0  0  0  0  0  0  0
   19.9870    4.2070   33.0950 O   0  0  0  0  0  0  0  0  0  0  0  0
   22.4760    1.5090   28.6230 O   0  0  0  0  0  0  0  0  0  0  0  0
   28.1190   -4.4590   36.8250 C   0  0  1  0  0  0  0  0  0  0  0  0
   29.5710   -4.6470   37.3410 C   0  0  1  0  0  0  0  0  0  0  0  0
   29.8720   -6.1580   37.5250 C   0  0  2  0  0  0  0  0  0  0  0  0
   28.8770   -6.7760   38.5400 C   0  0  1  0  0  0  0  0  0  0  0  0
   27.4060   -6.6190   38.0190 C   0  0  0  0  0  0  0  0  0  0  0  0
   27.1100   -5.1060   37.8340 C   0  0  2  0  0  0  0  0  0  0  0  0
   29.1690   -8.2020   38.7250 N   0  0  0  0  0  0  0  0  0  0  0  0
   25.7360   -4.9700   37.3500 N   0  0  0  0  0  0  0  0  0  0  0  0
   30.4770   -4.0710   36.3910 O   0  0  0  0  0  0  0  0  0  0  0  0
   31.2040   -6.2820   37.9970 O   0  0  0  0  0  0  0  0  0  0  0  0
  1  2  1  0  0  0  0
  1 10  1  0  0  0  0
  1 16  1  1  0  0  0
  2  3  1  0  0  0  0
  2 12  1  1  0  0  0
  4  3  1  1  0  0  0
  4  5  1  0  0  0  0
  4 11  1  0  0  0  0
  5  6  1  0  0  0  0
  5 10  1  6  0  0  0
  6  7  1  0  0  0  0
  6 14  1  6  0  0  0
  7  8  1  0  0  0  0
  7 13  1  6  0  0  0
  8 11  1  0  0  0  0
  8 15  1  1  0  0  0
  9 13  1  0  0  0  0
 17 15  1  6  0  0  0
 17 18  1  0  0  0  0
 17 23  1  0  0  0  0
 18 19  1  0  0  0  0
 18 25  1  1  0  0  0
 19 20  1  0  0  0  0
 19 26  1  1  0  0  0
 20 21  1  0  0  0  0
 20 24  1  6  0  0  0
 21 22  1  6  0  0  0
 21 23  1  0  0  0  0
 22 27  1  0  0  0  0
 28 16  1  1  0  0  0
 28 29  1  0  0  0  0
 28 33  1  0  0  0  0
 29 30  1  0  0  0  0
 29 36  1  6  0  0  0
 30 31  1  0  0  0  0
 30 37  1  1  0  0  0
 31 32  1  0  0  0  0
 31 34  1  6  0  0  0
 32 33  1  0  0  0  0
 33 35  1  6  0  0  0
A    1
CA1
A    2
CA2
A    3
CA3
A    4
CA4
A    5
CA5
A    6
CA6
A    7
CA7
A    8
CA8
A    9
CA9
A   10
OA4
A   11
OA5
A   12
NA2
A   13
NA7
A   14
OA6
A   15
OA8
A   16
OA1
A   17
CB1
A   18
CB2
A   19
CB3
A   20
CB4
A   21
CB5
A   22
CB6
A   23
OB1
A   24
NB4
A   25
OB2
A   26
OB3
A   27
OB6
A   28
CC1
A   29
CC2
A   30
CC3
A   31
CC4
A   32
CC5
A   33
CC6
A   34
NC4
A   35
NC6
A   36
OC2
A   37
OC3
M  END
>  <InstanceId>
1YRJ_AM2_A_151

>  <ChemCompId>
AM2

>  <PdbId>
1YRJ

>  <ChainId>
A

>  <ResidueNumber>
151

>  <InsertionCode>


>  <Model>
1

>  <AltIds>


>  <MissingHeavyAtoms>
0

>  <ObservedFormula>
C21 N5 O11

>  <Name>
APRAMYCIN

>  <SystematicName>
(2R,3R,4S,5S,6S)-2-[[(2R,3S,4R,4aR,6S,7R,8aS)-7-amino-6-[(1R,2R,3S,4R,6S)-4,6-diamino-2,3-dihydroxy-cyclohexyl]oxy-4-hydroxy-3-methylamino-2,3,4,4a,6,7,8,8a-octahydropyrano[2,3-e]pyran-2-yl]oxy]-5-amino-6-(hydroxymethyl)oxane-3,4-diol

>  <Synonyms>
NEBRAMYCIN II, 4-O-(3ALPHA-AMINO-6ALPHA-((4-AMINO-4-DEOXY-ALPHA-D-GLUCOPYRANOSYL)OXY)-2,3,4,5ABETA,6,7,8,8AALPHA-OCTAHYDRO-8BETA-HYDROXY-7BETA-(METHYLAMINO)PYRANO(3,2-B)PYRAN-2ALPHA-YL)-2-DEOXY-D-STREPTAMINE

>  <Type>
NON-POLYMER

>  <Formula>
C21 H41 N5 O11

>  <MolecularWeight>
539.577

>  <ModifiedDate>
2011-06-04

>  <Parent>


>  <OneLetterCode>


>  <SubcomponentList>


>  <AmbiguousFlag>
N

>  <InChI>
InChI=1S/C21H41N5O11/c1-26-11-14(30)18-8(33-20(11)37-21-16(32)13(29)10(25)9(4-27)34-21)3-7(24)19(36-18)35-17-6(23)2-5(22)12(28)15(17)31/h5-21,26-32H,2-4,22-25H2,1H3/t5-,6+,7-,8+,9-,10-,11+,12+,13+,14-,15-,16-,17-,18+,19+,20-,21-/m1/s1

>  <InChIKey>
XZNUGFQTQHRASN-XQENGBIVSA-N

>  <SMILES>
CN[C@H]1[C@H]([C@@H]2[C@H](C[C@H]([C@H](O2)O[C@@H]3[C@H](C[C@H]([C@@H]([C@H]3O)O)N)N)N)O[C@@H]1O[C@@H]4[C@@H]([C@H]([C@@H]([C@H](O4)CO)N)O)O)O

$$$$
