@<TRIPOS>MOLECULE
1YRJ_AM2_A_151
 37 40 0 0 0
SMALL
GASTEIGER
****
Coordinates from PDB:1YRJ:A:151 Model:1 without hydrogens
@<TRIPOS>ATOM
      1 C          28.3550   -2.3670   35.4950 C.3     1  UNL1        0.2535
      2 C          28.6600   -0.8540   35.6840 C.3     1  UNL1        0.1505
      3 C          27.3670   -0.0220   35.8450 C.3     1  UNL1        0.0564
      4 C          26.4460   -0.3000   34.6440 C.3     1  UNL1        0.1491
      5 C          26.1190   -1.8430   34.5680 C.3     1  UNL1        0.1766
      6 C          25.1530   -2.1920   33.3960 C.3     1  UNL1        0.2022
      7 C          23.8800   -1.2870   33.4540 C.3     1  UNL1        0.1619
      8 C          24.2920    0.2530   33.5880 C.3     1  UNL1        0.2562
      9 C          22.2920   -2.9310   32.2670 C.3     1  UNL1        0.1077
     10 O          27.3810   -2.6110   34.4460 O.3     1  UNL1       -0.3267
     11 O          25.2090    0.4780   34.7420 O.3     1  UNL1       -0.3292
     12 N          29.5980   -0.6100   36.8320 N.3     1  UNL1       -0.1275
     13 N          22.9780   -1.5980   32.2790 N.3     1  UNL1       -0.2103
     14 O          25.8400   -2.1040   32.1640 O.3     1  UNL1       -0.2188
     15 O          23.1570    1.1200   33.7790 O.3     1  UNL1       -0.3025
     16 O          27.8930   -3.0060   36.6790 O.3     1  UNL1       -0.3277
     17 C          23.4170    2.4970   33.3760 C.3     1  UNL1        0.2712
     18 C          22.2600    3.5030   33.6980 C.3     1  UNL1        0.2395
     19 C          21.0120    3.2450   32.7930 C.3     1  UNL1        0.2071
     20 C          21.4570    3.3710   31.3030 C.3     1  UNL1        0.1545
     21 C          22.5980    2.3140   30.9900 C.3     1  UNL1        0.1707
     22 C          23.1660    2.3690   29.5490 C.3     1  UNL1        0.2131
     23 O          23.7270    2.5250   31.9070 O.3     1  UNL1       -0.3267
     24 N          20.2810    3.1630   30.4280 N.3     1  UNL1       -0.1275
     25 O          21.9510    3.4240   35.0940 O.3     1  UNL1       -0.2149
     26 O          19.9870    4.2070   33.0950 O.3     1  UNL1       -0.2186
     27 O          22.4760    1.5090   28.6230 O.3     1  UNL1       -0.2176
     28 C          28.1190   -4.4590   36.8250 C.3     1  UNL1        0.1681
     29 C          29.5710   -4.6470   37.3410 C.3     1  UNL1        0.2119
     30 C          29.8720   -6.1580   37.5250 C.3     1  UNL1        0.2020
     31 C          28.8770   -6.7760   38.5400 C.3     1  UNL1        0.1262
     32 C          27.4060   -6.6190   38.0190 C.3     1  UNL1        0.0433
     33 C          27.1100   -5.1060   37.8340 C.3     1  UNL1        0.1231
     34 N          29.1690   -8.2020   38.7250 N.3     1  UNL1       -0.1301
     35 N          25.7360   -4.9700   37.3500 N.3     1  UNL1       -0.1302
     36 O          30.4770   -4.0710   36.3910 O.3     1  UNL1       -0.2177
     37 O          31.2040   -6.2820   37.9970 O.3     1  UNL1       -0.2188
@<TRIPOS>BOND
     1     1     2    1
     2     1    10    1
     3     1    16    1
     4     2     3    1
     5     2    12    1
     6     4     3    1
     7     4     5    1
     8     4    11    1
     9     5     6    1
    10     5    10    1
    11     6     7    1
    12     6    14    1
    13     7     8    1
    14     7    13    1
    15     8    11    1
    16     8    15    1
    17     9    13    1
    18    17    15    1
    19    17    18    1
    20    17    23    1
    21    18    19    1
    22    18    25    1
    23    19    20    1
    24    19    26    1
    25    20    21    1
    26    20    24    1
    27    21    22    1
    28    21    23    1
    29    22    27    1
    30    28    16    1
    31    28    29    1
    32    28    33    1
    33    29    30    1
    34    29    36    1
    35    30    31    1
    36    30    37    1
    37    31    32    1
    38    31    34    1
    39    32    33    1
    40    33    35    1
