REMARK  22 active torsions:
REMARK  status: ('A' for Active; 'I' for Inactive)
REMARK    1  A    between atoms: C_1  and  O_2 
REMARK    2  A    between atoms: O_2  and  C_3 
REMARK    3  A    between atoms: C_4  and  O_12 
REMARK    4  A    between atoms: C_5  and  O_11 
REMARK    5  A    between atoms: C_6  and  N_7 
REMARK    6  A    between atoms: C_9  and  N_10 
REMARK    7  A    between atoms: O_12  and  C_13 
REMARK    8  A    between atoms: C_14  and  O_32 
REMARK    9  A    between atoms: C_15  and  O_20 
REMARK   10  A    between atoms: C_16  and  C_18 
REMARK   11  A    between atoms: C_18  and  O_19 
REMARK   12  A    between atoms: C_21  and  O_20 
REMARK   13  A    between atoms: C_22  and  N_31 
REMARK   14  A    between atoms: C_23  and  O_30 
REMARK   15  A    between atoms: C_24  and  O_29 
REMARK   16  A    between atoms: C_25  and  C_27 
REMARK   17  A    between atoms: C_27  and  N_28 
REMARK   18  A    between atoms: C_33  and  N_34 
REMARK   19  A    between atoms: C_35  and  O_36 
REMARK   20  A    between atoms: C_37  and  O_38 
REMARK   21  A    between atoms: C_39  and  C_41 
REMARK   22  A    between atoms: C_41  and  N_42 
ROOT
ATOM      1  C   UNL d   1      -0.080 -10.943   2.721  0.00  0.00     0.189 C 
ATOM      2  C   UNL d   1      -0.001 -10.066   3.999  0.00  0.00     0.186 C 
ATOM      3  C   UNL d   1      -0.884 -10.692   5.108  0.00  0.00     0.182 C 
ATOM      4  C   UNL d   1      -0.403 -12.116   5.481  0.00  0.00     0.251 C 
ATOM      5  C   UNL d   1      -0.371 -13.011   4.233  0.00  0.00     0.076 C 
ATOM      6  C   UNL d   1       0.362 -12.414   3.011  0.00  0.00     0.251 C 
ENDROOT
BRANCH   2   7
ATOM      7  O   UNL d   1       1.372  -9.878   4.404  0.00  0.00    -0.348 OA
BRANCH   7   8
ATOM      8  C   UNL d   1       1.480  -8.910   5.451  0.00  0.00     0.292 C 
ATOM      9  C   UNL d   1       2.916  -8.680   5.921  0.00  0.00     0.205 C 
ATOM     10  C   UNL d   1       2.734  -7.341   6.644  0.00  0.00     0.189 C 
ATOM     11  C   UNL d   1       1.752  -6.622   5.700  0.00  0.00     0.180 C 
ATOM     12  O   UNL d   1       0.972  -7.644   5.033  0.00  0.00    -0.348 OA
BRANCH   9  13
ATOM     13  O   UNL d   1       3.410  -9.712   6.775  0.00  0.00    -0.388 OA
ATOM     14  H   UNL d   1       2.986  -9.558   7.644  0.00  0.00     0.210 HD
ENDBRANCH   9  13
BRANCH  10  15
ATOM     15  O   UNL d   1       2.147  -7.631   7.941  0.00  0.00    -0.348 OA
BRANCH  15  16
ATOM     16  C   UNL d   1       2.109  -6.501   8.831  0.00  0.00     0.296 C 
ATOM     17  O   UNL d   1       1.211  -5.504   8.358  0.00  0.00    -0.349 OA
ATOM     18  C   UNL d   1       1.226  -4.288   9.120  0.00  0.00     0.183 C 
ATOM     19  C   UNL d   1       0.812  -4.550  10.585  0.00  0.00     0.179 C 
ATOM     20  C   UNL d   1       1.653  -5.698  11.193  0.00  0.00     0.187 C 
ATOM     21  C   UNL d   1       1.671  -6.947  10.265  0.00  0.00     0.303 C 
BRANCH  18  22
ATOM     22  C   UNL d   1       0.275  -3.272   8.445  0.00  0.00     0.301 C 
BRANCH  22  23
ATOM     23  N   UNL d   1       0.690  -2.906   7.082  0.00  0.00     0.080 N 
ATOM     24  H   UNL d   1       1.576  -2.411   7.109  0.00  0.00     0.312 HD
ATOM     25  H   UNL d   1       0.007  -2.259   6.691  0.00  0.00     0.312 HD
ENDBRANCH  22  23
ENDBRANCH  18  22
BRANCH  19  26
ATOM     26  O   UNL d   1      -0.587  -4.874  10.646  0.00  0.00    -0.390 OA
ATOM     27  H   UNL d   1      -0.814  -5.080  11.570  0.00  0.00     0.210 HD
ENDBRANCH  19  26
BRANCH  20  28
ATOM     28  O   UNL d   1       2.974  -5.248  11.512  0.00  0.00    -0.391 OA
ATOM     29  H   UNL d   1       3.437  -4.956  10.713  0.00  0.00     0.210 HD
ENDBRANCH  20  28
BRANCH  21  30
ATOM     30  N   UNL d   1       0.350  -7.630  10.250  0.00  0.00     0.090 N 
ATOM     31  H   UNL d   1      -0.310  -7.026   9.741  0.00  0.00     0.313 HD
ATOM     32  H   UNL d   1      -0.022  -7.716  11.193  0.00  0.00     0.313 HD
ENDBRANCH  21  30
ENDBRANCH  15  16
ENDBRANCH  10  15
BRANCH  11  33
ATOM     33  C   UNL d   1       2.445  -5.766   4.637  0.00  0.00     0.198 C 
BRANCH  33  34
ATOM     34  O   UNL d   1       3.402  -6.517   3.897  0.00  0.00    -0.398 OA
ATOM     35  H   UNL d   1       3.386  -6.171   2.986  0.00  0.00     0.209 HD
ENDBRANCH  33  34
ENDBRANCH  11  33
ENDBRANCH   7   8
ENDBRANCH   2   7
BRANCH   1  36
ATOM     36  O   UNL d   1      -1.432 -10.970   2.199  0.00  0.00    -0.349 OA
BRANCH  36  37
ATOM     37  C   UNL d   1      -1.866  -9.725   1.609  0.00  0.00     0.296 C 
ATOM     38  C   UNL d   1      -3.311  -9.892   1.032  0.00  0.00     0.303 C 
ATOM     39  C   UNL d   1      -3.730  -8.574   0.335  0.00  0.00     0.187 C 
ATOM     40  C   UNL d   1      -2.667  -8.083  -0.661  0.00  0.00     0.179 C 
ATOM     41  C   UNL d   1      -1.251  -8.062  -0.051  0.00  0.00     0.183 C 
ATOM     42  O   UNL d   1      -0.936  -9.284   0.630  0.00  0.00    -0.349 OA
BRANCH  38  43
ATOM     43  N   UNL d   1      -3.449 -11.049   0.115  0.00  0.00     0.090 N 
ATOM     44  H   UNL d   1      -2.798 -10.911  -0.667  0.00  0.00     0.313 HD
ATOM     45  H   UNL d   1      -4.383 -11.068  -0.290  0.00  0.00     0.313 HD
ENDBRANCH  38  43
BRANCH  39  46
ATOM     46  O   UNL d   1      -4.088  -7.540   1.252  0.00  0.00    -0.391 OA
ATOM     47  H   UNL d   1      -3.523  -7.564   2.042  0.00  0.00     0.210 HD
ENDBRANCH  39  46
BRANCH  40  48
ATOM     48  O   UNL d   1      -2.643  -8.960  -1.802  0.00  0.00    -0.390 OA
ATOM     49  H   UNL d   1      -3.509  -8.901  -2.241  0.00  0.00     0.210 HD
ENDBRANCH  40  48
BRANCH  41  50
ATOM     50  C   UNL d   1      -0.973  -6.797   0.799  0.00  0.00     0.301 C 
BRANCH  50  51
ATOM     51  N   UNL d   1       0.368  -6.763   1.394  0.00  0.00     0.080 N 
ATOM     52  H   UNL d   1       1.044  -7.110   0.710  0.00  0.00     0.312 HD
ATOM     53  H   UNL d   1       0.417  -7.442   2.158  0.00  0.00     0.312 HD
ENDBRANCH  50  51
ENDBRANCH  41  50
ENDBRANCH  36  37
ENDBRANCH   1  36
BRANCH   3  54
ATOM     54  O   UNL d   1      -2.267 -10.712   4.718  0.00  0.00    -0.391 OA
ATOM     55  H   UNL d   1      -2.326 -11.186   3.862  0.00  0.00     0.210 HD
ENDBRANCH   3  54
BRANCH   6  56
ATOM     56  N   UNL d   1       1.825 -12.536   3.140  0.00  0.00     0.085 N 
ATOM     57  H   UNL d   1       2.054 -13.293   3.786  0.00  0.00     0.313 HD
ATOM     58  H   UNL d   1       2.208 -11.685   3.558  0.00  0.00     0.313 HD
ENDBRANCH   6  56
BRANCH   4  59
ATOM     59  N   UNL d   1       0.896 -12.151   6.170  0.00  0.00     0.085 N 
ATOM     60  H   UNL d   1       0.854 -11.592   7.022  0.00  0.00     0.313 HD
ATOM     61  H   UNL d   1       1.609 -11.693   5.592  0.00  0.00     0.313 HD
ENDBRANCH   4  59
TORSDOF 22
