@<TRIPOS>MOLECULE
3C7R_NMY_A_24
 88 91 0 0 0
SMALL
GASTEIGER

@<TRIPOS>ATOM
      1 C          -1.8658   -9.7247    1.6095 C.3     1  UNL1        0.1776
      2 H          -1.9282   -8.9801    2.4082 H       1  UNL1        0.0927
      3 O          -1.4317  -10.9701    2.1986 O.3     1  UNL1       -0.3422
      4 C          -0.0799  -10.9430    2.7214 C.3     1  UNL1        0.1055
      5 H           0.5928  -10.5517    1.9482 H       1  UNL1        0.0639
      6 C          -0.0009  -10.0661    3.9987 C.3     1  UNL1        0.1166
      7 H          -0.4105   -9.0849    3.7464 H       1  UNL1        0.0650
      8 C          -0.8844  -10.6920    5.1076 C.3     1  UNL1        0.0990
      9 H          -0.8697  -10.0727    6.0073 H       1  UNL1        0.0636
     10 C          -0.4031  -12.1155    5.4813 C.3     1  UNL1        0.0351
     11 H          -1.1345  -12.5486    6.1737 H       1  UNL1        0.0485
     12 N           0.8964  -12.1514    6.1695 N.3     1  UNL1       -0.3250
     13 C          -0.3706  -13.0114    4.2332 C.3     1  UNL1       -0.0175
     14 C           0.3624  -12.4135    3.0111 C.3     1  UNL1        0.0355
     15 H           0.0789  -13.0325    2.1513 H       1  UNL1        0.0485
     16 N           1.8253  -12.5359    3.1397 N.3     1  UNL1       -0.3250
     17 O          -2.2672  -10.7120    4.7176 O.3     1  UNL1       -0.3876
     18 O           1.3720   -9.8779    4.4040 O.3     1  UNL1       -0.3402
     19 C           1.4803   -8.9103    5.4507 C.3     1  UNL1        0.1884
     20 H           0.9093   -9.2535    6.3178 H       1  UNL1        0.0938
     21 C           2.9155   -8.6801    5.9211 C.3     1  UNL1        0.1345
     22 H           3.5970   -8.6071    5.0656 H       1  UNL1        0.0671
     23 C           2.7338   -7.3408    6.6438 C.3     1  UNL1        0.1205
     24 H           3.6845   -6.8214    6.7995 H       1  UNL1        0.0651
     25 C           1.7515   -6.6225    5.6996 C.3     1  UNL1        0.1135
     26 H           1.0241   -5.9977    6.2113 H       1  UNL1        0.0647
     27 O           0.9717   -7.6437    5.0331 O.3     1  UNL1       -0.3405
     28 C           2.4445   -5.7663    4.6373 C.3     1  UNL1        0.0730
     29 O           3.4022   -6.5168    3.8969 O.3     1  UNL1       -0.3924
     30 O           2.1467   -7.6313    7.9414 O.3     1  UNL1       -0.3410
     31 C           2.1092   -6.5012    8.8311 C.3     1  UNL1        0.1776
     32 H           3.1242   -6.0888    8.8798 H       1  UNL1        0.0927
     33 C           1.6709   -6.9469   10.2647 C.3     1  UNL1        0.0853
     34 H           2.3975   -7.6749   10.6386 H       1  UNL1        0.0535
     35 C           1.6531   -5.6976   11.1925 C.3     1  UNL1        0.1033
     36 H           1.2039   -5.9889   12.1496 H       1  UNL1        0.0637
     37 C           0.8122   -4.5504   10.5853 C.3     1  UNL1        0.1100
     38 H           0.9536   -3.6315   11.1642 H       1  UNL1        0.0646
     39 C           1.2260   -4.2880    9.1199 C.3     1  UNL1        0.1022
     40 H           2.2463   -3.8841    9.0947 H       1  UNL1        0.0636
     41 O           1.2114   -5.5039    8.3581 O.3     1  UNL1       -0.3425
     42 C           0.2747   -3.2720    8.4454 C.3     1  UNL1        0.0222
     43 N           0.6903   -2.9060    7.0822 N.3     1  UNL1       -0.3276
     44 O          -0.5865   -4.8737   10.6463 O.3     1  UNL1       -0.3866
     45 O           2.9738   -5.2479   11.5117 O.3     1  UNL1       -0.3874
     46 N           0.3496   -7.6297   10.2499 N.3     1  UNL1       -0.3211
     47 O           3.4105   -9.7122    6.7748 O.3     1  UNL1       -0.3841
     48 C          -3.3114   -9.8917    1.0323 C.3     1  UNL1        0.0853
     49 H          -3.9837  -10.0931    1.8765 H       1  UNL1        0.0535
     50 N          -3.4491  -11.0488    0.1149 N.3     1  UNL1       -0.3211
     51 C          -3.7298   -8.5736    0.3348 C.3     1  UNL1        0.1033
     52 H          -4.6566   -8.7724   -0.2261 H       1  UNL1        0.0637
     53 O          -4.0885   -7.5401    1.2522 O.3     1  UNL1       -0.3874
     54 C          -2.6673   -8.0833   -0.6611 C.3     1  UNL1        0.1100
     55 H          -2.9194   -7.0834   -1.0321 H       1  UNL1        0.0646
     56 O          -2.6426   -8.9598   -1.8019 O.3     1  UNL1       -0.3866
     57 C          -1.2508   -8.0625   -0.0515 C.3     1  UNL1        0.1022
     58 H          -0.5389   -8.0326   -0.8865 H       1  UNL1        0.0636
     59 O          -0.9359   -9.2838    0.6296 O.3     1  UNL1       -0.3425
     60 C          -0.9732   -6.7967    0.7987 C.3     1  UNL1        0.0222
     61 N           0.3683   -6.7633    1.3936 N.3     1  UNL1       -0.3276
     62 H           0.8536  -11.5922    7.0217 H       1  UNL1        0.1185
     63 H           1.6089  -11.6932    5.5924 H       1  UNL1        0.1185
     64 H          -1.4074  -13.2234    3.9396 H       1  UNL1        0.0297
     65 H           0.0520  -13.9927    4.4903 H       1  UNL1        0.0297
     66 H           2.0544  -13.2934    3.7856 H       1  UNL1        0.1185
     67 H           2.2082  -11.6848    3.5579 H       1  UNL1        0.1185
     68 H          -2.3260  -11.1861    3.8623 H       1  UNL1        0.2100
     69 H           1.7008   -5.3744    3.9365 H       1  UNL1        0.0584
     70 H           2.9719   -4.9308    5.1062 H       1  UNL1        0.0584
     71 H           3.3860   -6.1706    2.9864 H       1  UNL1        0.2095
     72 H           0.2254   -2.3569    9.0472 H       1  UNL1        0.0448
     73 H          -0.7369   -3.6883    8.3775 H       1  UNL1        0.0448
     74 H           1.5758   -2.4112    7.1086 H       1  UNL1        0.1183
     75 H           0.0072   -2.2589    6.6914 H       1  UNL1        0.1183
     76 H          -0.8144   -5.0800   11.5698 H       1  UNL1        0.2100
     77 H           3.4373   -4.9562   10.7131 H       1  UNL1        0.2100
     78 H          -0.3103   -7.0263    9.7410 H       1  UNL1        0.1187
     79 H          -0.0216   -7.7158   11.1931 H       1  UNL1        0.1187
     80 H           2.9859   -9.5577    7.6435 H       1  UNL1        0.2101
     81 H          -2.7984  -10.9112   -0.6670 H       1  UNL1        0.1187
     82 H          -4.3832  -11.0683   -0.2896 H       1  UNL1        0.1187
     83 H          -3.5230   -7.5638    2.0424 H       1  UNL1        0.2100
     84 H          -3.5092   -8.9011   -2.2407 H       1  UNL1        0.2100
     85 H          -1.0781   -5.9149    0.1550 H       1  UNL1        0.0448
     86 H          -1.6911   -6.6799    1.6122 H       1  UNL1        0.0448
     87 H           1.0439   -7.1104    0.7104 H       1  UNL1        0.1183
     88 H           0.4170   -7.4422    2.1577 H       1  UNL1        0.1183
@<TRIPOS>BOND
     1     1    48    1
     2     1    59    1
     3     1     3    1
     4     1     2    1
     5     3     4    1
     6     4     5    1
     7     4     6    1
     8     6     8    1
     9     6    18    1
    10     6     7    1
    11     8    10    1
    12     8    17    1
    13     8     9    1
    14    10    11    1
    15    10    12    1
    16    10    13    1
    17    12    62    1
    18    12    63    1
    19    13    14    1
    20    13    64    1
    21    13    65    1
    22    14    15    1
    23    14     4    1
    24    14    16    1
    25    16    66    1
    26    16    67    1
    27    17    68    1
    28    18    19    1
    29    19    20    1
    30    19    21    1
    31    19    27    1
    32    21    23    1
    33    21    47    1
    34    21    22    1
    35    23    24    1
    36    23    25    1
    37    23    30    1
    38    25    27    1
    39    25    28    1
    40    25    26    1
    41    28    29    1
    42    28    69    1
    43    28    70    1
    44    29    71    1
    45    31    41    1
    46    31    32    1
    47    31    30    1
    48    33    31    1
    49    33    46    1
    50    33    34    1
    51    35    33    1
    52    35    45    1
    53    35    36    1
    54    37    35    1
    55    37    38    1
    56    37    44    1
    57    39    37    1
    58    39    40    1
    59    39    41    1
    60    39    42    1
    61    42    43    1
    62    42    72    1
    63    42    73    1
    64    43    74    1
    65    43    75    1
    66    44    76    1
    67    45    77    1
    68    46    78    1
    69    46    79    1
    70    47    80    1
    71    48    51    1
    72    48    50    1
    73    48    49    1
    74    50    81    1
    75    50    82    1
    76    51    54    1
    77    51    53    1
    78    51    52    1
    79    53    83    1
    80    54    55    1
    81    54    56    1
    82    54    57    1
    83    56    84    1
    84    57    59    1
    85    57    60    1
    86    57    58    1
    87    60    61    1
    88    60    85    1
    89    60    86    1
    90    61    87    1
    91    61    88    1
