3C7R_NMY_A_24
 OpenBabel03221817293D

 88 91  0  0  1  0  0  0  0  0999 V2000
   -1.8658   -9.7247    1.6095 C   0  0  2  0  0  0  0  0  0  0  0  0
   -1.9282   -8.9801    2.4082 H   0  0  0  0  0  0  0  0  0  0  0  0
   -1.4317  -10.9701    2.1986 O   0  0  0  0  0  0  0  0  0  0  0  0
   -0.0799  -10.9430    2.7214 C   0  0  1  0  0  0  0  0  0  0  0  0
    0.5928  -10.5517    1.9482 H   0  0  0  0  0  0  0  0  0  0  0  0
   -0.0009  -10.0661    3.9987 C   0  0  1  0  0  0  0  0  0  0  0  0
   -0.4105   -9.0849    3.7464 H   0  0  0  0  0  0  0  0  0  0  0  0
   -0.8844  -10.6920    5.1076 C   0  0  2  0  0  0  0  0  0  0  0  0
   -0.8697  -10.0727    6.0073 H   0  0  0  0  0  0  0  0  0  0  0  0
   -0.4031  -12.1155    5.4813 C   0  0  2  0  0  0  0  0  0  0  0  0
   -1.1345  -12.5486    6.1737 H   0  0  0  0  0  0  0  0  0  0  0  0
    0.8964  -12.1514    6.1695 N   0  0  0  0  0  0  0  0  0  0  0  0
   -0.3706  -13.0114    4.2332 C   0  0  0  0  0  0  0  0  0  0  0  0
    0.3624  -12.4135    3.0111 C   0  0  2  0  0  0  0  0  0  0  0  0
    0.0789  -13.0325    2.1513 H   0  0  0  0  0  0  0  0  0  0  0  0
    1.8253  -12.5359    3.1397 N   0  0  0  0  0  0  0  0  0  0  0  0
   -2.2672  -10.7120    4.7176 O   0  0  0  0  0  0  0  0  0  0  0  0
    1.3720   -9.8779    4.4040 O   0  0  0  0  0  0  0  0  0  0  0  0
    1.4803   -8.9103    5.4507 C   0  0  1  0  0  0  0  0  0  0  0  0
    0.9093   -9.2535    6.3178 H   0  0  0  0  0  0  0  0  0  0  0  0
    2.9155   -8.6801    5.9211 C   0  0  1  0  0  0  0  0  0  0  0  0
    3.5970   -8.6071    5.0656 H   0  0  0  0  0  0  0  0  0  0  0  0
    2.7338   -7.3408    6.6438 C   0  0  1  0  0  0  0  0  0  0  0  0
    3.6845   -6.8214    6.7995 H   0  0  0  0  0  0  0  0  0  0  0  0
    1.7515   -6.6225    5.6996 C   0  0  2  0  0  0  0  0  0  0  0  0
    1.0241   -5.9977    6.2113 H   0  0  0  0  0  0  0  0  0  0  0  0
    0.9717   -7.6437    5.0331 O   0  0  0  0  0  0  0  0  0  0  0  0
    2.4445   -5.7663    4.6373 C   0  0  0  0  0  0  0  0  0  0  0  0
    3.4022   -6.5168    3.8969 O   0  0  0  0  0  0  0  0  0  0  0  0
    2.1467   -7.6313    7.9414 O   0  0  0  0  0  0  0  0  0  0  0  0
    2.1092   -6.5012    8.8311 C   0  0  2  0  0  0  0  0  0  0  0  0
    3.1242   -6.0888    8.8798 H   0  0  0  0  0  0  0  0  0  0  0  0
    1.6709   -6.9469   10.2647 C   0  0  1  0  0  0  0  0  0  0  0  0
    2.3975   -7.6749   10.6386 H   0  0  0  0  0  0  0  0  0  0  0  0
    1.6531   -5.6976   11.1925 C   0  0  2  0  0  0  0  0  0  0  0  0
    1.2039   -5.9889   12.1496 H   0  0  0  0  0  0  0  0  0  0  0  0
    0.8122   -4.5504   10.5853 C   0  0  1  0  0  0  0  0  0  0  0  0
    0.9536   -3.6315   11.1642 H   0  0  0  0  0  0  0  0  0  0  0  0
    1.2260   -4.2880    9.1199 C   0  0  1  0  0  0  0  0  0  0  0  0
    2.2463   -3.8841    9.0947 H   0  0  0  0  0  0  0  0  0  0  0  0
    1.2114   -5.5039    8.3581 O   0  0  0  0  0  0  0  0  0  0  0  0
    0.2747   -3.2720    8.4454 C   0  0  0  0  0  0  0  0  0  0  0  0
    0.6903   -2.9060    7.0822 N   0  0  0  0  0  0  0  0  0  0  0  0
   -0.5865   -4.8737   10.6463 O   0  0  0  0  0  0  0  0  0  0  0  0
    2.9738   -5.2479   11.5117 O   0  0  0  0  0  0  0  0  0  0  0  0
    0.3496   -7.6297   10.2499 N   0  0  0  0  0  0  0  0  0  0  0  0
    3.4105   -9.7122    6.7748 O   0  0  0  0  0  0  0  0  0  0  0  0
   -3.3114   -9.8917    1.0323 C   0  0  2  0  0  0  0  0  0  0  0  0
   -3.9837  -10.0931    1.8765 H   0  0  0  0  0  0  0  0  0  0  0  0
   -3.4491  -11.0488    0.1149 N   0  0  0  0  0  0  0  0  0  0  0  0
   -3.7298   -8.5736    0.3348 C   0  0  1  0  0  0  0  0  0  0  0  0
   -4.6566   -8.7724   -0.2261 H   0  0  0  0  0  0  0  0  0  0  0  0
   -4.0885   -7.5401    1.2522 O   0  0  0  0  0  0  0  0  0  0  0  0
   -2.6673   -8.0833   -0.6611 C   0  0  2  0  0  0  0  0  0  0  0  0
   -2.9194   -7.0834   -1.0321 H   0  0  0  0  0  0  0  0  0  0  0  0
   -2.6426   -8.9598   -1.8019 O   0  0  0  0  0  0  0  0  0  0  0  0
   -1.2508   -8.0625   -0.0515 C   0  0  2  0  0  0  0  0  0  0  0  0
   -0.5389   -8.0326   -0.8865 H   0  0  0  0  0  0  0  0  0  0  0  0
   -0.9359   -9.2838    0.6296 O   0  0  0  0  0  0  0  0  0  0  0  0
   -0.9732   -6.7967    0.7987 C   0  0  0  0  0  0  0  0  0  0  0  0
    0.3683   -6.7633    1.3936 N   0  0  0  0  0  0  0  0  0  0  0  0
    0.8536  -11.5922    7.0217 H   0  0  0  0  0  0  0  0  0  0  0  0
    1.6089  -11.6932    5.5924 H   0  0  0  0  0  0  0  0  0  0  0  0
   -1.4074  -13.2234    3.9396 H   0  0  0  0  0  0  0  0  0  0  0  0
    0.0520  -13.9927    4.4903 H   0  0  0  0  0  0  0  0  0  0  0  0
    2.0544  -13.2934    3.7856 H   0  0  0  0  0  0  0  0  0  0  0  0
    2.2082  -11.6848    3.5579 H   0  0  0  0  0  0  0  0  0  0  0  0
   -2.3260  -11.1861    3.8623 H   0  0  0  0  0  0  0  0  0  0  0  0
    1.7008   -5.3744    3.9365 H   0  0  0  0  0  0  0  0  0  0  0  0
    2.9719   -4.9308    5.1062 H   0  0  0  0  0  0  0  0  0  0  0  0
    3.3860   -6.1706    2.9864 H   0  0  0  0  0  0  0  0  0  0  0  0
    0.2254   -2.3569    9.0472 H   0  0  0  0  0  0  0  0  0  0  0  0
   -0.7369   -3.6883    8.3775 H   0  0  0  0  0  0  0  0  0  0  0  0
    1.5758   -2.4112    7.1086 H   0  0  0  0  0  0  0  0  0  0  0  0
    0.0072   -2.2589    6.6914 H   0  0  0  0  0  0  0  0  0  0  0  0
   -0.8144   -5.0800   11.5698 H   0  0  0  0  0  0  0  0  0  0  0  0
    3.4373   -4.9562   10.7131 H   0  0  0  0  0  0  0  0  0  0  0  0
   -0.3103   -7.0263    9.7410 H   0  0  0  0  0  0  0  0  0  0  0  0
   -0.0216   -7.7158   11.1931 H   0  0  0  0  0  0  0  0  0  0  0  0
    2.9859   -9.5577    7.6435 H   0  0  0  0  0  0  0  0  0  0  0  0
   -2.7984  -10.9112   -0.6670 H   0  0  0  0  0  0  0  0  0  0  0  0
   -4.3832  -11.0683   -0.2896 H   0  0  0  0  0  0  0  0  0  0  0  0
   -3.5230   -7.5638    2.0424 H   0  0  0  0  0  0  0  0  0  0  0  0
   -3.5092   -8.9011   -2.2407 H   0  0  0  0  0  0  0  0  0  0  0  0
   -1.0781   -5.9149    0.1550 H   0  0  0  0  0  0  0  0  0  0  0  0
   -1.6911   -6.6799    1.6122 H   0  0  0  0  0  0  0  0  0  0  0  0
    1.0439   -7.1104    0.7104 H   0  0  0  0  0  0  0  0  0  0  0  0
    0.4170   -7.4422    2.1577 H   0  0  0  0  0  0  0  0  0  0  0  0
  1 48  1  6  0  0  0
  1 59  1  0  0  0  0
  1  3  1  0  0  0  0
  1  2  1  0  0  0  0
  3  4  1  0  0  0  0
  4  5  1  0  0  0  0
  4  6  1  1  0  0  0
  6  8  1  1  0  0  0
  6 18  1  0  0  0  0
  6  7  1  0  0  0  0
  8 10  1  1  0  0  0
  8 17  1  0  0  0  0
  8  9  1  0  0  0  0
 10 11  1  1  0  0  0
 10 12  1  0  0  0  0
 10 13  1  0  0  0  0
 12 62  1  0  0  0  0
 12 63  1  0  0  0  0
 13 14  1  0  0  0  0
 13 64  1  0  0  0  0
 13 65  1  0  0  0  0
 14 15  1  0  0  0  0
 14  4  1  6  0  0  0
 14 16  1  0  0  0  0
 16 66  1  0  0  0  0
 16 67  1  0  0  0  0
 17 68  1  0  0  0  0
 18 19  1  0  0  0  0
 19 20  1  0  0  0  0
 19 21  1  1  0  0  0
 19 27  1  0  0  0  0
 21 23  1  1  0  0  0
 21 47  1  0  0  0  0
 21 22  1  0  0  0  0
 23 24  1  0  0  0  0
 23 25  1  6  0  0  0
 23 30  1  0  0  0  0
 25 27  1  0  0  0  0
 25 28  1  0  0  0  0
 25 26  1  1  0  0  0
 28 29  1  0  0  0  0
 28 69  1  0  0  0  0
 28 70  1  0  0  0  0
 29 71  1  0  0  0  0
 31 41  1  0  0  0  0
 31 32  1  1  0  0  0
 31 30  1  0  0  0  0
 33 31  1  6  0  0  0
 33 46  1  0  0  0  0
 33 34  1  0  0  0  0
 35 33  1  6  0  0  0
 35 45  1  0  0  0  0
 35 36  1  0  0  0  0
 37 35  1  1  0  0  0
 37 38  1  0  0  0  0
 37 44  1  0  0  0  0
 39 37  1  1  0  0  0
 39 40  1  0  0  0  0
 39 41  1  0  0  0  0
 39 42  1  0  0  0  0
 42 43  1  0  0  0  0
 42 72  1  0  0  0  0
 42 73  1  0  0  0  0
 43 74  1  0  0  0  0
 43 75  1  0  0  0  0
 44 76  1  0  0  0  0
 45 77  1  0  0  0  0
 46 78  1  0  0  0  0
 46 79  1  0  0  0  0
 47 80  1  0  0  0  0
 48 51  1  6  0  0  0
 48 50  1  0  0  0  0
 48 49  1  0  0  0  0
 50 81  1  0  0  0  0
 50 82  1  0  0  0  0
 51 54  1  6  0  0  0
 51 53  1  0  0  0  0
 51 52  1  0  0  0  0
 53 83  1  0  0  0  0
 54 55  1  0  0  0  0
 54 56  1  0  0  0  0
 54 57  1  1  0  0  0
 56 84  1  0  0  0  0
 57 59  1  0  0  0  0
 57 60  1  0  0  0  0
 57 58  1  6  0  0  0
 60 61  1  0  0  0  0
 60 85  1  0  0  0  0
 60 86  1  0  0  0  0
 61 87  1  0  0  0  0
 61 88  1  0  0  0  0
M  END
$$$$
