@<TRIPOS>MOLECULE
3DS7_GNG_A_120
 32 34 0 0 0
SMALL
GASTEIGER

@<TRIPOS>ATOM
      1 O5*         1.0266   -0.3785   -0.1308 O.3     1    G1       -0.3924
      2 C5*         2.3877   -0.0178    0.0981 C.3     1    G1        0.0729
      3 C4*         2.8878   -0.5862    1.4267 C.3     1    G1        0.1100
      4 H4*         3.9259   -0.2609    1.5714 H       1    G1        0.0646
      5 O4*         2.1173   -0.0568    2.5228 O.3     1    G1       -0.3484
      6 C1*         2.2158   -1.0264    3.5829 C.3     1    G1        0.1407
      7 H1*         3.1343   -0.8139    4.1438 H       1    G1        0.0840
      8 N9          1.1130   -0.8821    4.5152 N.ar    1    G1       -0.2893
      9 C8          0.8918   -1.7018    5.6031 C.ar    1    G1        0.1004
     10 N7         -0.1571   -1.3264    6.3111 N.ar    1    G1       -0.2286
     11 C5         -0.6270   -0.1966    5.6741 C.ar    1    G1        0.1721
     12 C4          0.1467    0.0680    4.5770 C.ar    1    G1        0.1482
     13 N3         -0.0699    1.1268    3.7870 N.ar    1    G1       -0.3122
     14 H3          0.5491    1.3579    3.0161 H       1    G1        0.1700
     15 C2         -1.0770    1.9774    4.1609 C.ar    1    G1        0.1952
     16 N1         -1.8763    1.8219    5.1752 N.ar    1    G1       -0.1756
     17 C6         -1.7426    0.6990    6.0060 C.ar    1    G1        0.3021
     18 O6         -2.4998    0.4867    6.9454 O.2     1    G1       -0.2633
     19 N2         -1.1838    3.0734    3.3690 N.pl3   1    G1       -0.3289
     20 C2*         2.2825   -2.3915    2.9123 C.3     1    G1        0.0213
     21 C3*         2.7842   -2.1079    1.5127 C.3     1    G1        0.0876
     22 H3*         2.1066   -2.5298    0.7630 H       1    G1        0.0621
     23 O3*         4.0662   -2.6991    1.3181 O.3     1    G1       -0.3890
     24 H5*         0.7550    0.0512   -0.9611 H       1    G1        0.2095
     25 H5*1        2.4430    1.0750    0.1112 H       1    G1        0.0584
     26 H5*2        2.9895   -0.3997   -0.7333 H       1    G1        0.0584
     27 H8          1.5242   -2.5502    5.8323 H       1    G1        0.1030
     28 H21        -1.0737    2.9047    2.3791 H       1    G1        0.1451
     29 H22        -2.0365    3.5874    3.5711 H       1    G1        0.1451
     30 H2*1        1.2855   -2.8446    2.8514 H       1    G1        0.0335
     31 H2*2        2.9190   -3.0815    3.4774 H       1    G1        0.0335
     32 H3*         3.9384   -3.6633    1.2564 H       1    G1        0.2099
@<TRIPOS>BOND
     1     1     2    1
     2     1    24    1
     3     2     3    1
     4     2    25    1
     5     2    26    1
     6     3     4    1
     7     3     5    1
     8     3    21    1
     9     5     6    1
    10     6    20    1
    11     6     8    1
    12     6     7    1
    13     8     9   ar
    14     8    12   ar
    15     9    10   ar
    16     9    27    1
    17    10    11   ar
    18    11    12   ar
    19    11    17   ar
    20    12    13   ar
    21    13    14    1
    22    13    15   ar
    23    15    16   ar
    24    15    19    1
    25    16    17   ar
    26    17    18    2
    27    19    28    1
    28    19    29    1
    29    20    21    1
    30    20    30    1
    31    20    31    1
    32    21    22    1
    33    21    23    1
    34    23    32    1
