REMARK  5 active torsions:
REMARK  status: ('A' for Active; 'I' for Inactive)
REMARK    1  A    between atoms: O5*_1  and  C5*_2 
REMARK    2  A    between atoms: C5*_2  and  C4*_3 
REMARK    3  A    between atoms: C1*_5  and  N9_6 
REMARK    4  A    between atoms: C2_13  and  N2_17 
REMARK    5  A    between atoms: C3*_19  and  O3*_20 
ROOT
ATOM      1  N9   G1 d           1.113  -0.882   4.515  0.00  0.00    -0.298 N 
ATOM      2  C8   G1 d           0.892  -1.702   5.603  0.00  0.00     0.214 A 
ATOM      3  N7   G1 d          -0.157  -1.326   6.311  0.00  0.00    -0.234 NA
ATOM      4  C5   G1 d          -0.627  -0.197   5.674  0.00  0.00     0.172 A 
ATOM      5  C4   G1 d           0.147   0.068   4.577  0.00  0.00     0.148 A 
ATOM      6  N3   G1 d          -0.070   1.127   3.787  0.00  0.00    -0.315 N 
ATOM      7  H3   G1 d           0.549   1.358   3.016  0.00  0.00     0.170 HD
ATOM      8  C2   G1 d          -1.077   1.977   4.161  0.00  0.00     0.182 A 
ATOM      9  N1   G1 d          -1.876   1.822   5.175  0.00  0.00    -0.179 NA
ATOM     10  C6   G1 d          -1.743   0.699   6.006  0.00  0.00     0.302 A 
ATOM     11  O6   G1 d          -2.500   0.487   6.945  0.00  0.00    -0.263 OA
ENDROOT
BRANCH   1  12
ATOM     12  C1*  G1 d           2.216  -1.026   3.583  0.00  0.00     0.233 C 
ATOM     13  O4*  G1 d           2.117  -0.057   2.523  0.00  0.00    -0.356 OA
ATOM     14  C4*  G1 d           2.888  -0.586   1.427  0.00  0.00     0.176 C 
ATOM     15  C3*  G1 d           2.784  -2.108   1.513  0.00  0.00     0.153 C 
ATOM     16  C2*  G1 d           2.283  -2.392   2.912  0.00  0.00     0.088 C 
BRANCH  14  17
ATOM     17  C5*  G1 d           2.388  -0.018   0.098  0.00  0.00     0.198 C 
BRANCH  17  18
ATOM     18  O5*  G1 d           1.027  -0.379  -0.131  0.00  0.00    -0.398 OA
ATOM     19  H5*  G1 d           0.755   0.051  -0.961  0.00  0.00     0.209 HD
ENDBRANCH  17  18
ENDBRANCH  14  17
BRANCH  15  20
ATOM     20  O3*  G1 d           4.066  -2.699   1.318  0.00  0.00    -0.393 OA
ATOM     21  H3*  G1 d           3.938  -3.663   1.256  0.00  0.00     0.210 HD
ENDBRANCH  15  20
ENDBRANCH   1  12
BRANCH   8  22
ATOM     22  N2   G1 d          -1.184   3.073   3.369  0.00  0.00    -0.272 NA
ATOM     23  H21  G1 d          -1.074   2.905   2.379  0.00  0.00     0.127 HD
ATOM     24  H22  G1 d          -2.037   3.587   3.571  0.00  0.00     0.127 HD
ENDBRANCH   8  22
TORSDOF 5
