@<TRIPOS>MOLECULE
ligand.pdb
 10 9 0 0 0
SMALL
GASTEIGER

@<TRIPOS>ATOM
      1 N          32.2110   16.0950   19.4150 N.3     1  LYS1       -0.1208
      2 CA         31.5950   16.9000   20.5030 C.3     1  LYS1        0.1943
      3 C          32.6450   17.3760   21.4910 C.2     1  LYS1        0.3819
      4 O          33.8420   17.1510   21.3030 O.co2   1  LYS1       -0.2441
      5 CB         30.4900   16.1130   21.1990 C.3     1  LYS1        0.0307
      6 CG         29.2610   15.9310   20.3280 C.3     1  LYS1        0.0036
      7 CD         28.1340   15.2650   21.0830 C.3     1  LYS1        0.0206
      8 CE         26.8860   15.2010   20.2300 C.3     1  LYS1        0.1093
      9 NZ         27.0380   14.3160   19.0450 N.3     1  LYS1       -0.1314
     10 OXT        32.3490   18.0260   22.4880 O.co2   1  LYS1       -0.2441
@<TRIPOS>BOND
     1     2     3    1
     2     2     5    1
     3     2     1    1
     4     3     4   ar
     5     3    10   ar
     6     5     6    1
     7     6     7    1
     8     7     8    1
     9     8     9    1
