ligand.pdb
 OpenBabel03221814173D

 10  9  0  0  1  0  0  0  0  0999 V2000
   32.2110   16.0950   19.4150 N   0  0  0  0  0  0  0  0  0  0  0  0
   31.5950   16.9000   20.5030 C   0  0  2  0  0  0  0  0  0  0  0  0
   32.6450   17.3760   21.4910 C   0  0  0  0  0  0  0  0  0  0  0  0
   33.8420   17.1510   21.3030 O   0  0  0  0  0  0  0  0  0  0  0  0
   30.4900   16.1130   21.1990 C   0  0  0  0  0  0  0  0  0  0  0  0
   29.2610   15.9310   20.3280 C   0  0  0  0  0  0  0  0  0  0  0  0
   28.1340   15.2650   21.0830 C   0  0  0  0  0  0  0  0  0  0  0  0
   26.8860   15.2010   20.2300 C   0  0  0  0  0  0  0  0  0  0  0  0
   27.0380   14.3160   19.0450 N   0  0  0  0  0  0  0  0  0  0  0  0
   32.3490   18.0260   22.4880 O   0  0  0  0  0  0  0  0  0  0  0  0
  2  3  1  0  0  0  0
  2  5  1  0  0  0  0
  2  1  1  6  0  0  0
  3  4  2  0  0  0  0
  3 10  1  0  0  0  0
  5  6  1  0  0  0  0
  6  7  1  0  0  0  0
  7  8  1  0  0  0  0
  8  9  1  0  0  0  0
M  END
>  <HEADER>
RNA                                     20-JUN-08   3DIO

>  <TITLE>
CRYSTALLIZATION OF THE THERMOTOGA MARITIMA LYSINE
2 RIBOSWITCH BOUND TO LYSINE, IRIDIUM HEXAMINE SOAK

>  <COMPND>
MOL_ID: 1;
2 MOLECULE: RNA (174-MER);
3 CHAIN: X;
4 ENGINEERED: YES

>  <SOURCE>
MOL_ID: 1;
2 SYNTHETIC: YES;
3 OTHER_DETAILS: IN VITRO TRANSCRIBED RNA FROM THE
4 THERMOTOGA MARITIMA MSB8 ASD GENE

>  <KEYWDS>
RIBOSWITCH, LYSINE, RNA

>  <EXPDTA>
X-RAY DIFFRACTION

>  <AUTHOR>
A.A.SERGANOV

>  <REVDAT>
3   24-FEB-09 3DIO    1       VERSN
2   11-NOV-08 3DIO    1       JRNL
1   16-SEP-08 3DIO    0

>  <JRNL>
AUTH   A.SERGANOV,L.HUANG,D.J.PATEL
TITL   STRUCTURAL INSIGHTS INTO AMINO ACID BINDING AND
TITL 2 GENE CONTROL BY A LYSINE RIBOSWITCH.
REF    NATURE                        V. 455  1263 2008
REFN                   ISSN 0028-0836
PMID   18784651
DOI    10.1038/NATURE07326

>  <REMARK>
1
2
2 RESOLUTION.    2.40 ANGSTROMS.
3
3 REFINEMENT.
3   PROGRAM     : REFMAC 5.2.0019
3   AUTHORS     : MURSHUDOV,VAGIN,DODSON
3
3    REFINEMENT TARGET : MAXIMUM LIKELIHOOD
3
3  DATA USED IN REFINEMENT.
3   RESOLUTION RANGE HIGH (ANGSTROMS) : 2.40
3   RESOLUTION RANGE LOW  (ANGSTROMS) : 20.00
3   DATA CUTOFF            (SIGMA(F)) : 0.000
3   COMPLETENESS FOR RANGE        (%) : 99.0
3   NUMBER OF REFLECTIONS             : 22478
3
3  FIT TO DATA USED IN REFINEMENT.
3   CROSS-VALIDATION METHOD          : THROUGHOUT
3   FREE R VALUE TEST SET SELECTION  : RANDOM
3   R VALUE     (WORKING + TEST SET) : 0.206
3   R VALUE            (WORKING SET) : 0.204
3   FREE R VALUE                     : 0.243
3   FREE R VALUE TEST SET SIZE   (%) : 5.100
3   FREE R VALUE TEST SET COUNT      : 1206
3
3  FIT IN THE HIGHEST RESOLUTION BIN.
3   TOTAL NUMBER OF BINS USED           : 20
3   BIN RESOLUTION RANGE HIGH       (A) : 2.40
3   BIN RESOLUTION RANGE LOW        (A) : 2.46
3   REFLECTION IN BIN     (WORKING SET) : 1615
3   BIN COMPLETENESS (WORKING+TEST) (%) : 97.24
3   BIN R VALUE           (WORKING SET) : 0.3080
3   BIN FREE R VALUE SET COUNT          : 78
3   BIN FREE R VALUE                    : 0.4510
3
3  NUMBER OF NON-HYDROGEN ATOMS USED IN REFINEMENT.
3   PROTEIN ATOMS            : 0
3   NUCLEIC ACID ATOMS       : 3752
3   HETEROGEN ATOMS          : 156
3   SOLVENT ATOMS            : 259
3
3  B VALUES.
3   FROM WILSON PLOT           (A**2) : NULL
3   MEAN B VALUE      (OVERALL, A**2) : 27.73
3   OVERALL ANISOTROPIC B VALUE.
3    B11 (A**2) : -0.24000
3    B22 (A**2) : -1.38000
3    B33 (A**2) : 1.62000
3    B12 (A**2) : 0.00000
3    B13 (A**2) : 0.00000
3    B23 (A**2) : 0.00000
3
3  ESTIMATED OVERALL COORDINATE ERROR.
3   ESU BASED ON R VALUE                            (A): 0.423
3   ESU BASED ON FREE R VALUE                       (A): 0.257
3   ESU BASED ON MAXIMUM LIKELIHOOD                 (A): 0.173
3   ESU FOR B VALUES BASED ON MAXIMUM LIKELIHOOD (A**2): 13.348
3
3 CORRELATION COEFFICIENTS.
3   CORRELATION COEFFICIENT FO-FC      : 0.936
3   CORRELATION COEFFICIENT FO-FC FREE : 0.916
3
3  RMS DEVIATIONS FROM IDEAL VALUES        COUNT    RMS    WEIGHT
3   BOND LENGTHS REFINED ATOMS        (A):  4321 ; 0.006 ; 0.021
3   BOND LENGTHS OTHERS               (A):  NULL ;  NULL ;  NULL
3   BOND ANGLES REFINED ATOMS   (DEGREES):  6842 ; 1.193 ; 2.999
3   BOND ANGLES OTHERS          (DEGREES):  NULL ;  NULL ;  NULL
3   TORSION ANGLES, PERIOD 1    (DEGREES):  NULL ;  NULL ;  NULL
3   TORSION ANGLES, PERIOD 2    (DEGREES):  NULL ;  NULL ;  NULL
3   TORSION ANGLES, PERIOD 3    (DEGREES):     4 ; 7.085 ;15.000
3   TORSION ANGLES, PERIOD 4    (DEGREES):  NULL ;  NULL ;  NULL
3   CHIRAL-CENTER RESTRAINTS       (A**3):   870 ; 0.066 ; 0.200
3   GENERAL PLANES REFINED ATOMS      (A):  1838 ; 0.004 ; 0.020
3   GENERAL PLANES OTHERS             (A):  NULL ;  NULL ;  NULL
3   NON-BONDED CONTACTS REFINED ATOMS (A):  1493 ; 0.154 ; 0.200
3   NON-BONDED CONTACTS OTHERS        (A):  NULL ;  NULL ;  NULL
3   NON-BONDED TORSION REFINED ATOMS  (A):  2551 ; 0.264 ; 0.200
3   NON-BONDED TORSION OTHERS         (A):  NULL ;  NULL ;  NULL
3   H-BOND (X...Y) REFINED ATOMS      (A):   375 ; 0.120 ; 0.200
3   H-BOND (X...Y) OTHERS             (A):  NULL ;  NULL ;  NULL
3   POTENTIAL METAL-ION REFINED ATOMS (A):     9 ; 0.097 ; 0.200
3   POTENTIAL METAL-ION OTHERS        (A):  NULL ;  NULL ;  NULL
3   SYMMETRY VDW REFINED ATOMS        (A):    43 ; 0.127 ; 0.200
3   SYMMETRY VDW OTHERS               (A):  NULL ;  NULL ;  NULL
3   SYMMETRY H-BOND REFINED ATOMS     (A):    18 ; 0.120 ; 0.200
3   SYMMETRY H-BOND OTHERS            (A):  NULL ;  NULL ;  NULL
3   SYMMETRY METAL-ION REFINED ATOMS  (A):  NULL ;  NULL ;  NULL
3   SYMMETRY METAL-ION OTHERS         (A):  NULL ;  NULL ;  NULL
3
3  ISOTROPIC THERMAL FACTOR RESTRAINTS.     COUNT   RMS    WEIGHT
3   MAIN-CHAIN BOND REFINED ATOMS  (A**2):     5 ; 0.287 ; 1.500
3   MAIN-CHAIN BOND OTHER ATOMS    (A**2):  NULL ;  NULL ;  NULL
3   MAIN-CHAIN ANGLE REFINED ATOMS (A**2):     7 ; 0.456 ; 2.000
3   SIDE-CHAIN BOND REFINED ATOMS  (A**2):  4558 ; 0.877 ; 3.000
3   SIDE-CHAIN ANGLE REFINED ATOMS (A**2):  6835 ; 1.372 ; 4.500
3
3 ANISOTROPIC THERMAL FACTOR RESTRAINTS.    COUNT   RMS   WEIGHT
3   RIGID-BOND RESTRAINTS          (A**2):  NULL ;  NULL ;  NULL
3   SPHERICITY; FREE ATOMS         (A**2):  NULL ;  NULL ;  NULL
3   SPHERICITY; BONDED ATOMS       (A**2):  NULL ;  NULL ;  NULL
3
3  NCS RESTRAINTS STATISTICS
3   NUMBER OF DIFFERENT NCS GROUPS : NULL
3
3  TLS DETAILS
3   NUMBER OF TLS GROUPS  : NULL
3
3  BULK SOLVENT MODELLING.
3   METHOD USED : MASK
3   PARAMETERS FOR MASK CALCULATION
3   VDW PROBE RADIUS   : 1.40
3   ION PROBE RADIUS   : 0.80
3   SHRINKAGE RADIUS   : 0.80
3
3  OTHER REFINEMENT REMARKS: HYDROGENS HAVE BEEN ADDED IN THE
3  RIDING POSITIONS
4
4 3DIO COMPLIES WITH FORMAT V. 3.15, 01-DEC-08
100
100 THIS ENTRY HAS BEEN PROCESSED BY RCSB ON 01-JUL-08.
100 THE RCSB ID CODE IS RCSB048085.
200
200 EXPERIMENTAL DETAILS
200  EXPERIMENT TYPE                : X-RAY DIFFRACTION
200  DATE OF DATA COLLECTION        : 06-FEB-08; NULL; NULL
200  TEMPERATURE           (KELVIN) : 100; NULL; NULL
200  PH                             : 5.7
200  NUMBER OF CRYSTALS USED        : 1
200
200  SYNCHROTRON              (Y/N) : Y; Y; Y
200  RADIATION SOURCE               : NSLS; NSLS; NSLS
200  BEAMLINE                       : X29A; X29A; X29A
200  X-RAY GENERATOR MODEL          : NULL; NULL; NULL
200  MONOCHROMATIC OR LAUE    (M/L) : M; NULL; NULL
200  WAVELENGTH OR RANGE        (A) : 1.105199; 1.105516; 1.085799
200  MONOCHROMATOR                  : NULL; NULL; NULL
200  OPTICS                         : NULL; NULL; NULL
200
200  DETECTOR TYPE                  : CCD; NULL; NULL
200  DETECTOR MANUFACTURER          : ADSC QUANTUM 4; NULL; NULL
200  INTENSITY-INTEGRATION SOFTWARE : HKL-2000
200  DATA SCALING SOFTWARE          : HKL-2000
200
200  NUMBER OF UNIQUE REFLECTIONS   : 23799
200  RESOLUTION RANGE HIGH      (A) : 2.400
200  RESOLUTION RANGE LOW       (A) : 20.000
200  REJECTION CRITERIA  (SIGMA(I)) : 0.000
200
200 OVERALL.
200  COMPLETENESS FOR RANGE     (%) : 99.0
200  DATA REDUNDANCY                : 6.500
200  R MERGE                    (I) : 0.11300
200  R SYM                      (I) : NULL
200  <I/SIGMA(I)> FOR THE DATA SET  : 23.9000
200
200 IN THE HIGHEST RESOLUTION SHELL.
200  HIGHEST RESOLUTION SHELL, RANGE HIGH (A) : 2.40
200  HIGHEST RESOLUTION SHELL, RANGE LOW  (A) : 2.49
200  COMPLETENESS FOR SHELL     (%) : 97.6
200  DATA REDUNDANCY IN SHELL       : 6.10
200  R MERGE FOR SHELL          (I) : 0.53900
200  R SYM FOR SHELL            (I) : NULL
200  <I/SIGMA(I)> FOR SHELL         : 3.400
200
200 DIFFRACTION PROTOCOL: MAD; NULL; NULL
200 METHOD USED TO DETERMINE THE STRUCTURE: MAD
200 SOFTWARE USED: SHARP
200 STARTING MODEL: NULL
200
200 REMARK: NULL
280
280 CRYSTAL
280 SOLVENT CONTENT, VS   (%): 52.96
280 MATTHEWS COEFFICIENT, VM (ANGSTROMS**3/DA): 2.61
280
280 CRYSTALLIZATION CONDITIONS: 18% PEG4000, 0.1M SODIUM CITRATE,
280  20% ISOPROPANOL, PH 5.7, VAPOR DIFFUSION, HANGING DROP,
280  TEMPERATURE 293K
290
290 CRYSTALLOGRAPHIC SYMMETRY
290 SYMMETRY OPERATORS FOR SPACE GROUP: P 21 21 21
290
290      SYMOP   SYMMETRY
290     NNNMMM   OPERATOR
290       1555   X,Y,Z
290       2555   -X+1/2,-Y,Z+1/2
290       3555   -X,Y+1/2,-Z+1/2
290       4555   X+1/2,-Y+1/2,-Z
290
290     WHERE NNN -> OPERATOR NUMBER
290           MMM -> TRANSLATION VECTOR
290
290 CRYSTALLOGRAPHIC SYMMETRY TRANSFORMATIONS
290 THE FOLLOWING TRANSFORMATIONS OPERATE ON THE ATOM/HETATM
290 RECORDS IN THIS ENTRY TO PRODUCE CRYSTALLOGRAPHICALLY
290 RELATED MOLECULES.
290   SMTRY1   1  1.000000  0.000000  0.000000        0.00000
290   SMTRY2   1  0.000000  1.000000  0.000000        0.00000
290   SMTRY3   1  0.000000  0.000000  1.000000        0.00000
290   SMTRY1   2 -1.000000  0.000000  0.000000       26.95900
290   SMTRY2   2  0.000000 -1.000000  0.000000        0.00000
290   SMTRY3   2  0.000000  0.000000  1.000000       70.41750
290   SMTRY1   3 -1.000000  0.000000  0.000000        0.00000
290   SMTRY2   3  0.000000  1.000000  0.000000       39.00200
290   SMTRY3   3  0.000000  0.000000 -1.000000       70.41750
290   SMTRY1   4  1.000000  0.000000  0.000000       26.95900
290   SMTRY2   4  0.000000 -1.000000  0.000000       39.00200
290   SMTRY3   4  0.000000  0.000000 -1.000000        0.00000
290
290 REMARK: NULL
300
300 BIOMOLECULE: 1
300 SEE REMARK 350 FOR THE AUTHOR PROVIDED AND/OR PROGRAM
300 GENERATED ASSEMBLY INFORMATION FOR THE STRUCTURE IN
300 THIS ENTRY. THE REMARK MAY ALSO PROVIDE INFORMATION ON
300 BURIED SURFACE AREA.
350
350 COORDINATES FOR A COMPLETE MULTIMER REPRESENTING THE KNOWN
350 BIOLOGICALLY SIGNIFICANT OLIGOMERIZATION STATE OF THE
350 MOLECULE CAN BE GENERATED BY APPLYING BIOMT TRANSFORMATIONS
350 GIVEN BELOW.  BOTH NON-CRYSTALLOGRAPHIC AND
350 CRYSTALLOGRAPHIC OPERATIONS ARE GIVEN.
350
350 BIOMOLECULE: 1
350 AUTHOR DETERMINED BIOLOGICAL UNIT: MONOMERIC
350 SOFTWARE DETERMINED QUATERNARY STRUCTURE: MONOMERIC
350 SOFTWARE USED: PISA
350 APPLY THE FOLLOWING TO CHAINS: X
350   BIOMT1   1  1.000000  0.000000  0.000000        0.00000
350   BIOMT2   1  0.000000  1.000000  0.000000        0.00000
350   BIOMT3   1  0.000000  0.000000  1.000000        0.00000
500
500 GEOMETRY AND STEREOCHEMISTRY
500 SUBTOPIC: COVALENT BOND LENGTHS
500
500 THE STEREOCHEMICAL PARAMETERS OF THE FOLLOWING RESIDUES
500 HAVE VALUES WHICH DEVIATE FROM EXPECTED VALUES BY MORE
500 THAN 6*RMSD (M=MODEL NUMBER; RES=RESIDUE NAME; C=CHAIN
500 IDENTIFIER; SSEQ=SEQUENCE NUMBER; I=INSERTION CODE).
500
500 STANDARD TABLE:
500 FORMAT: (10X,I3,1X,2(A3,1X,A1,I4,A1,1X,A4,3X),1X,F6.3)
500
500 EXPECTED VALUES PROTEIN: ENGH AND HUBER, 1999
500 EXPECTED VALUES NUCLEIC ACID: CLOWNEY ET AL 1996
500
500  M RES CSSEQI ATM1   RES CSSEQI ATM2   DEVIATION
500      G X   1   P       G X   1   OP3    -0.120
500
500 REMARK: NULL
500
500 GEOMETRY AND STEREOCHEMISTRY
500 SUBTOPIC: COVALENT BOND ANGLES
500
500 THE STEREOCHEMICAL PARAMETERS OF THE FOLLOWING RESIDUES
500 HAVE VALUES WHICH DEVIATE FROM EXPECTED VALUES BY MORE
500 THAN 6*RMSD (M=MODEL NUMBER; RES=RESIDUE NAME; C=CHAIN
500 IDENTIFIER; SSEQ=SEQUENCE NUMBER; I=INSERTION CODE).
500
500 STANDARD TABLE:
500 FORMAT: (10X,I3,1X,A3,1X,A1,I4,A1,3(1X,A4,2X),12X,F5.1)
500
500 EXPECTED VALUES PROTEIN: ENGH AND HUBER, 1999
500 EXPECTED VALUES NUCLEIC ACID: CLOWNEY ET AL 1996
500
500  M RES CSSEQI ATM1   ATM2   ATM3
500      G X  12   O4' -  C1' -  N9  ANGL. DEV. =   5.6 DEGREES
500      U X  52   C3' -  O3' -  P   ANGL. DEV. =   8.8 DEGREES
500      U X 153   C1' -  O4' -  C4' ANGL. DEV. =  -7.7 DEGREES
500      U X 153   O4' -  C1' -  N1  ANGL. DEV. =   5.3 DEGREES
500
500 REMARK: NULL
610
610 MISSING HETEROATOM
610 THE FOLLOWING RESIDUES HAVE MISSING ATOMS (M=MODEL NUMBER;
610 RES=RESIDUE NAME; C=CHAIN IDENTIFIER; SSEQ=SEQUENCE NUMBER;
610 I=INSERTION CODE):
610   M RES C SSEQI
610     1PE X  280
620
620 METAL COORDINATION
620  (M=MODEL NUMBER; RES=RESIDUE NAME; C=CHAIN IDENTIFIER;
620  SSEQ=SEQUENCE NUMBER; I=INSERTION CODE):
620
620 COORDINATION ANGLES FOR:  M RES CSSEQI METAL
620                              NA X 203  NA
620 N RES CSSEQI ATOM
620 1   G X  11   OP2
620 2   G X  12   O6   68.9
620 3 HOH X 309   O   100.7 165.0
620 4 HOH X 447   O    74.7  81.9  84.9
620 N                    1     2     3
620
620 COORDINATION ANGLES FOR:  M RES CSSEQI METAL
620                              NA X 201  NA
620 N RES CSSEQI ATOM
620 1   G X  20   O6
620 2   G X  71   O6   73.7
620 3 HOH X 381   O    80.3  82.5
620 4 HOH X 393   O    89.5  78.4 160.2
620 N                    1     2     3
620
620 COORDINATION ANGLES FOR:  M RES CSSEQI METAL
620                              NA X 212  NA
620 N RES CSSEQI ATOM
620 1   G X  68   OP2
620 2   G X  69   N7  128.7
620 3 HOH X 485   O   112.4  92.5
620 N                    1     2
620
620 COORDINATION ANGLES FOR:  M RES CSSEQI METAL
620                              NA X 202  NA
620 N RES CSSEQI ATOM
620 1   G X  68   N7
620 2   G X  69   O6   90.5
620 3 HOH X 305   O    98.1 145.3
620 4 HOH X 307   O   165.8  85.7  92.7
620 5 HOH X 306   O    80.7  75.0 139.5  85.1
620 N                    1     2     3     4
620
620 COORDINATION ANGLES FOR:  M RES CSSEQI METAL
620                              NA X 205  NA
620 N RES CSSEQI ATOM
620 1   G X  80   N7
620 2   A X 164   OP1  98.5
620 3 HOH X 481   O   165.3  88.5
620 4 HOH X 316   O    90.3 108.1  99.8
620 5 HOH X 314   O    81.6 117.4  83.7 134.4
620 N                    1     2     3     4
620
620 COORDINATION ANGLES FOR:  M RES CSSEQI METAL
620                              NA X 214  NA
620 N RES CSSEQI ATOM
620 1   A X  82   O2'
620 2 HOH X 352   O   162.0
620 N                    1
620
620 COORDINATION ANGLES FOR:  M RES CSSEQI METAL
620                              NA X 207  NA
620 N RES CSSEQI ATOM
620 1   G X  92   O6
620 2   U X  93   O4   69.1
620 3 HOH X 437   O    90.6  60.5
620 N                    1     2
620
620 COORDINATION ANGLES FOR:  M RES CSSEQI METAL
620                               K X 200   K
620 N RES CSSEQI ATOM
620 1   G X 115   O2'
620 2 LYS X 175   OXT  80.1
620 3 HOH X 339   O    76.4 117.9
620 4 HOH X 403   O    66.5 145.3  64.2
620 N                    1     2     3
620
620 COORDINATION ANGLES FOR:  M RES CSSEQI METAL
620                              NA X 204  NA
620 N RES CSSEQI ATOM
620 1 HOH X 512   O
620 2 HOH X 398   O    76.6
620 N                    1
620
620 COORDINATION ANGLES FOR:  M RES CSSEQI METAL
620                              NA X 206  NA
620 N RES CSSEQI ATOM
620 1 HOH X 516   O
620 2 HOH X 319   O   123.3
620 3 HOH X 352   O    83.6  82.7
620 N                    1     2
800
800 SITE
800 SITE_IDENTIFIER: AC1
800 EVIDENCE_CODE: SOFTWARE
800 SITE_DESCRIPTION: BINDING SITE FOR RESIDUE K X 200
800 SITE_IDENTIFIER: AC2
800 EVIDENCE_CODE: SOFTWARE
800 SITE_DESCRIPTION: BINDING SITE FOR RESIDUE NA X 201
800 SITE_IDENTIFIER: AC3
800 EVIDENCE_CODE: SOFTWARE
800 SITE_DESCRIPTION: BINDING SITE FOR RESIDUE NA X 202
800 SITE_IDENTIFIER: AC4
800 EVIDENCE_CODE: SOFTWARE
800 SITE_DESCRIPTION: BINDING SITE FOR RESIDUE NA X 203
800 SITE_IDENTIFIER: AC5
800 EVIDENCE_CODE: SOFTWARE
800 SITE_DESCRIPTION: BINDING SITE FOR RESIDUE NA X 204
800 SITE_IDENTIFIER: AC6
800 EVIDENCE_CODE: SOFTWARE
800 SITE_DESCRIPTION: BINDING SITE FOR RESIDUE NA X 205
800 SITE_IDENTIFIER: AC7
800 EVIDENCE_CODE: SOFTWARE
800 SITE_DESCRIPTION: BINDING SITE FOR RESIDUE NA X 206
800 SITE_IDENTIFIER: AC8
800 EVIDENCE_CODE: SOFTWARE
800 SITE_DESCRIPTION: BINDING SITE FOR RESIDUE NA X 207
800 SITE_IDENTIFIER: AC9
800 EVIDENCE_CODE: SOFTWARE
800 SITE_DESCRIPTION: BINDING SITE FOR RESIDUE NA X 212
800 SITE_IDENTIFIER: BC2
800 EVIDENCE_CODE: SOFTWARE
800 SITE_DESCRIPTION: BINDING SITE FOR RESIDUE NA X 214
800 SITE_IDENTIFIER: BC3
800 EVIDENCE_CODE: SOFTWARE
800 SITE_DESCRIPTION: BINDING SITE FOR RESIDUE IRI X 250
800 SITE_IDENTIFIER: BC4
800 EVIDENCE_CODE: SOFTWARE
800 SITE_DESCRIPTION: BINDING SITE FOR RESIDUE IRI X 251
800 SITE_IDENTIFIER: BC5
800 EVIDENCE_CODE: SOFTWARE
800 SITE_DESCRIPTION: BINDING SITE FOR RESIDUE IRI X 252
800 SITE_IDENTIFIER: BC7
800 EVIDENCE_CODE: SOFTWARE
800 SITE_DESCRIPTION: BINDING SITE FOR RESIDUE IRI X 254
800 SITE_IDENTIFIER: BC8
800 EVIDENCE_CODE: SOFTWARE
800 SITE_DESCRIPTION: BINDING SITE FOR RESIDUE IRI X 255
800 SITE_IDENTIFIER: BC9
800 EVIDENCE_CODE: SOFTWARE
800 SITE_DESCRIPTION: BINDING SITE FOR RESIDUE IRI X 256
800 SITE_IDENTIFIER: CC2
800 EVIDENCE_CODE: SOFTWARE
800 SITE_DESCRIPTION: BINDING SITE FOR RESIDUE IRI X 258
800 SITE_IDENTIFIER: CC3
800 EVIDENCE_CODE: SOFTWARE
800 SITE_DESCRIPTION: BINDING SITE FOR RESIDUE IRI X 259
800 SITE_IDENTIFIER: CC4
800 EVIDENCE_CODE: SOFTWARE
800 SITE_DESCRIPTION: BINDING SITE FOR RESIDUE IRI X 260
800 SITE_IDENTIFIER: CC5
800 EVIDENCE_CODE: SOFTWARE
800 SITE_DESCRIPTION: BINDING SITE FOR RESIDUE IRI X 261
800 SITE_IDENTIFIER: CC8
800 EVIDENCE_CODE: SOFTWARE
800 SITE_DESCRIPTION: BINDING SITE FOR RESIDUE IRI X 264
800 SITE_IDENTIFIER: CC9
800 EVIDENCE_CODE: SOFTWARE
800 SITE_DESCRIPTION: BINDING SITE FOR RESIDUE IRI X 265
800 SITE_IDENTIFIER: DC1
800 EVIDENCE_CODE: SOFTWARE
800 SITE_DESCRIPTION: BINDING SITE FOR RESIDUE LYS X 175
900
900 RELATED ENTRIES
900 RELATED ID: 3DIG   RELATED DB: PDB
900 RELATED ID: 3DIL   RELATED DB: PDB
900 RELATED ID: 3DIM   RELATED DB: PDB
900 RELATED ID: 3DIQ   RELATED DB: PDB
900 RELATED ID: 3DIR   RELATED DB: PDB
900 RELATED ID: 3DIS   RELATED DB: PDB
900 RELATED ID: 3DIX   RELATED DB: PDB
900 RELATED ID: 3DIY   RELATED DB: PDB
900 RELATED ID: 3DIZ   RELATED DB: PDB
900 RELATED ID: 3DJ0   RELATED DB: PDB
900 RELATED ID: 3DJ2   RELATED DB: PDB

>  <DBREF>
3DIO X    1   174  PDB    3DIO     3DIO             1    174

>  <SEQRES>
1 X  174    G   G   C   C   G   A   C   G   G   A   G   G   C
2 X  174    G   C   G   C   C   C   G   A   G   A   U   G   A
3 X  174    G   U   A   G   G   C   U   G   U   C   C   C   A
4 X  174    U   C   A   G   G   G   G   A   G   G   A   A   U
5 X  174    C   G   G   G   G   A   C   G   G   C   U   G   A
6 X  174    A   A   G   G   C   G   A   G   G   G   C   G   C
7 X  174    C   G   A   A   G   G   G   U   G   C   A   G   A
8 X  174    G   U   U   C   C   U   C   C   C   G   C   U   C
9 X  174    U   G   C   A   U   G   C   C   U   G   G   G   G
10 X  174    G   U   A   U   G   G   G   G   A   A   U   A   C
11 X  174    C   C   A   U   A   C   C   A   C   U   G   U   C
12 X  174    A   C   G   G   A   G   G   U   C   U   C   U   C
13 X  174    C   G   U   G   G   A   G   A   G   C   C   G   U
14 X  174    C   G   G   U CCC

>  <MODRES>
3DIO CCC X  174    C

>  <HET>
CCC  X 174      23
K  X 200       1
NA  X 201       1
NA  X 202       1
NA  X 203       1
NA  X 204       1
NA  X 205       1
NA  X 206       1
NA  X 207       1
NA  X 208       1
NA  X 209       1
NA  X 210       1
NA  X 211       1
NA  X 212       1
NA  X 213       1
NA  X 214       1
IRI  X 250       7
IRI  X 251       7
IRI  X 252       7
IRI  X 253      14
IRI  X 254       7
IRI  X 255       7
IRI  X 256       7
IRI  X 257       7
IRI  X 258       7
IRI  X 259       7
IRI  X 260      14
IRI  X 261       7
IRI  X 262       7
IRI  X 263       7
IRI  X 264       7
IRI  X 265       7
LYS  X 175      10
1PE  X 280       5

>  <HETNAM>
CCC CYTIDINE-5'-PHOSPHATE-2',3'-CYCLIC PHOSPHATE
K POTASSIUM ION
NA SODIUM ION
IRI IRIDIUM HEXAMMINE ION
LYS LYSINE
1PE PENTAETHYLENE GLYCOL

>  <HETSYN>
1PE PEG400

>  <FORMUL>
1  CCC    C9 H13 N3 O10 P2
2    K    K 1+
3   NA    14(NA 1+)
17  IRI    16(H18 IR N6 3+)
33  LYS    C6 H15 N2 O2 1+
34  1PE    C10 H22 O6
35  HOH   *259(H2 O)

>  <LINK>
O3'   U X 173                 P   CCC X 174     1555   1555  1.61
OP2   G X  11                NA    NA X 203     1555   1555  2.58
O6    G X  12                NA    NA X 203     1555   1555  2.58
O6    G X  20                NA    NA X 201     1555   1555  2.53
OP2   G X  68                NA    NA X 212     1555   1555  2.85
N7    G X  68                NA    NA X 202     1555   1555  2.96
N7    G X  69                NA    NA X 212     1555   1555  2.87
O6    G X  69                NA    NA X 202     1555   1555  2.78
O6    G X  71                NA    NA X 201     1555   1555  2.49
N7    G X  80                NA    NA X 205     1555   1555  2.72
O2'   A X  82                NA    NA X 214     1555   1555  2.74
O6    G X  92                NA    NA X 207     1555   1555  2.57
O4    U X  93                NA    NA X 207     1555   1555  2.93
O2'   G X 115                 K     K X 200     1555   1555  2.88
OP1   A X 164                NA    NA X 205     1555   1555  2.46
K     K X 200                 OXT LYS X 175     1555   1555  2.83
K     K X 200                 O   HOH X 339     1555   1555  2.77
K     K X 200                 O   HOH X 403     1555   1555  2.75
NA    NA X 201                 O   HOH X 381     1555   1555  2.23
NA    NA X 201                 O   HOH X 393     1555   1555  2.58
NA    NA X 202                 O   HOH X 305     1555   1555  2.39
NA    NA X 202                 O   HOH X 307     1555   1555  2.43
NA    NA X 202                 O   HOH X 306     1555   1555  2.51
NA    NA X 203                 O   HOH X 309     1555   1555  2.34
NA    NA X 203                 O   HOH X 447     1555   1555  2.99
NA    NA X 204                 O   HOH X 512     1555   1555  2.92
NA    NA X 204                 O   HOH X 398     1555   1555  2.32
NA    NA X 205                 O   HOH X 481     1555   1555  2.64
NA    NA X 205                 O   HOH X 316     1555   1555  2.45
NA    NA X 205                 O   HOH X 314     1555   1555  2.32
NA    NA X 206                 O   HOH X 516     1555   1555  2.68
NA    NA X 206                 O   HOH X 319     1555   1555  2.39
NA    NA X 206                 O   HOH X 352     1555   1555  2.54
NA    NA X 207                 O   HOH X 437     1555   1555  2.24
NA    NA X 212                 O   HOH X 485     1555   1555  2.51
NA    NA X 214                 O   HOH X 352     1555   1555  2.62

>  <SITE>
1 AC1  3 LYS X 175  HOH X 339  HOH X 403
1 AC2  2 HOH X 381  HOH X 393
1 AC3  3 HOH X 305  HOH X 306  HOH X 307
1 AC4  2 HOH X 309  HOH X 447
1 AC5  2 HOH X 398  HOH X 512
1 AC6  3 HOH X 314  HOH X 316  HOH X 481
1 AC7  3 HOH X 319  HOH X 352  HOH X 516
1 AC8  1 HOH X 437
1 AC9  1 HOH X 485
1 BC2  3 HOH X 319  HOH X 352  HOH X 454
1 BC3  3 HOH X 320  HOH X 321  HOH X 555
1 BC4  1 HOH X 366
1 BC5  1 HOH X 489
1 BC7  4 HOH X 368  HOH X 515  HOH X 554  HOH X 556
1 BC8  1 HOH X 312
1 BC9  2 HOH X 471  HOH X 472
1 CC2  1 HOH X 387
1 CC3  2 HOH X 322  HOH X 323
1 CC4  3 HOH X 390  HOH X 408  HOH X 505
1 CC5  1 HOH X 344
1 CC8  3 HOH X 301  HOH X 397  HOH X 398
1 CC9  1 HOH X 547
1 DC1  2 HOH X 337  HOH X 338

>  <ORIGX1>
1.000000  0.000000  0.000000        0.00000

>  <ORIGX2>
0.000000  1.000000  0.000000        0.00000

>  <ORIGX3>
0.000000  0.000000  1.000000        0.00000

>  <SCALE1>
0.018547  0.000000  0.000000        0.00000

>  <SCALE2>
0.000000  0.012820  0.000000        0.00000

>  <SCALE3>
0.000000  0.000000  0.007101        0.00000

$$$$
