@<TRIPOS>MOLECULE
ligand.pdb
 24 23 0 0 0
SMALL
GASTEIGER

@<TRIPOS>ATOM
      1 N           1.1200    0.1849    0.1419 N.3     1  LYS1       -0.3184
      2 CA          2.5826    0.0574   -0.0070 C.3     1  LYS1        0.1032
      3 HA          3.0588    0.9227    0.4690 H       1  LYS1        0.0574
      4 C           2.9323    0.0627   -1.5070 C.2     1  LYS1        0.3217
      5 O           3.0028   -0.9284   -2.2169 O.2     1  LYS1       -0.2493
      6 OXT         3.0713    1.3177   -2.0040 O.3     1  LYS1       -0.4795
      7 CB          3.0774   -1.2143    0.6959 C.3     1  LYS1       -0.0273
      8 CG          4.6082   -1.3060    0.7031 C.3     1  LYS1       -0.0500
      9 CD          5.0983   -2.5486    1.4495 C.3     1  LYS1       -0.0406
     10 CE          6.6250   -2.6341    1.4186 C.3     1  LYS1       -0.0069
     11 NZ          7.0848   -3.8200    2.1278 N.3     1  LYS1       -0.3300
     12 H1          0.6842   -0.6610   -0.2375 H       1  LYS1        0.1190
     13 H2          0.7662    0.9443   -0.4400 H       1  LYS1        0.1190
     14 HXT         2.9553    2.0172   -1.3322 H       1  LYS1        0.2951
     15 HB1         2.6612   -2.1077    0.2126 H       1  LYS1        0.0286
     16 HB2         2.7193   -1.2173    1.7336 H       1  LYS1        0.0286
     17 HG1         5.0261   -0.4087    1.1758 H       1  LYS1        0.0266
     18 HG2         4.9865   -1.3339   -0.3252 H       1  LYS1        0.0266
     19 HD1         4.6665   -3.4468    0.9902 H       1  LYS1        0.0277
     20 HD2         4.7464   -2.5144    2.4883 H       1  LYS1        0.0277
     21 HE1         7.0625   -1.7424    1.8792 H       1  LYS1        0.0422
     22 HE2         6.9764   -2.6796    0.3817 H       1  LYS1        0.0422
     23 HZ1         6.7953   -3.7732    3.1037 H       1  LYS1        0.1182
     24 HZ2         8.1036   -3.8383    2.1312 H       1  LYS1        0.1182
@<TRIPOS>BOND
     1     1    12    1
     2     1    13    1
     3     2     4    1
     4     2     7    1
     5     2     3    1
     6     2     1    1
     7     4     5    2
     8     4     6    1
     9     6    14    1
    10     7     8    1
    11     7    15    1
    12     7    16    1
    13     8     9    1
    14     8    17    1
    15     8    18    1
    16     9    10    1
    17     9    19    1
    18     9    20    1
    19    10    11    1
    20    10    21    1
    21    10    22    1
    22    11    23    1
    23    11    24    1
