2KXM_RIO_A_101
 OpenBabel10091713573D
Coordinates from PDB:2KXM:A:101 Model:1 without hydrogens
 31 33  0  0  0  0  0  0  0  0999 V2000
   -7.6530    5.0030   -3.6980 O   0  0  0  0  0  0  0  0  0  0  0  0
   -6.3500    4.4790   -3.5660 C   0  0  0  0  0  0  0  0  0  0  0  0
   -6.1780    3.2240   -4.4240 C   0  0  1  0  0  0  0  0  0  0  0  0
   -4.8150    2.8250   -4.4380 O   0  0  0  0  0  0  0  0  0  0  0  0
   -4.6980    1.4460   -4.1290 C   0  0  1  0  0  0  0  0  0  0  0  0
   -4.3070    1.2740   -2.7760 O   0  0  0  0  0  0  0  0  0  0  0  0
   -3.0590    0.6350   -2.5870 C   0  0  2  0  0  0  0  0  0  0  0  0
   -3.2380   -0.8970   -2.5410 C   0  0  1  0  0  0  0  0  0  0  0  0
   -3.7460   -1.3930   -3.7660 O   0  0  0  0  0  0  0  0  0  0  0  0
   -1.9070   -1.6240   -2.2810 C   0  0  2  0  0  0  0  0  0  0  0  0
   -2.0890   -3.0820   -2.1880 N   0  0  0  0  0  0  0  0  0  0  0  0
   -1.2890   -1.0810   -1.0010 C   0  0  0  0  0  0  0  0  0  0  0  0
   -1.1300    0.4340   -1.1200 C   0  0  2  0  0  0  0  0  0  0  0  0
   -0.4030    0.9500    0.0420 N   0  0  0  0  0  0  0  0  0  0  0  0
   -2.5010    1.1020   -1.2680 C   0  0  1  0  0  0  0  0  0  0  0  0
   -2.2580    2.5130   -1.2770 O   0  0  0  0  0  0  0  0  0  0  0  0
   -3.3190    3.3440   -0.8200 C   0  0  1  0  0  0  0  0  0  0  0  0
   -3.3410    3.4380    0.5960 O   0  0  0  0  0  0  0  0  0  0  0  0
   -2.2730    4.1780    1.1760 C   0  0  2  0  0  0  0  0  0  0  0  0
   -2.3690    4.1890    2.7020 C   0  0  0  0  0  0  0  0  0  0  0  0
   -2.6780    2.8780    3.2340 N   0  0  0  0  0  0  0  0  0  0  0  0
   -2.3150    5.6340    0.6810 C   0  0  1  0  0  0  0  0  0  0  0  0
   -1.2430    6.3820    1.2250 O   0  0  0  0  0  0  0  0  0  0  0  0
   -2.2150    5.6430   -0.8470 C   0  0  2  0  0  0  0  0  0  0  0  0
   -2.4140    6.9580   -1.3130 O   0  0  0  0  0  0  0  0  0  0  0  0
   -3.2560    4.7220   -1.4930 C   0  0  1  0  0  0  0  0  0  0  0  0
   -2.9980    4.6060   -2.9370 N   0  0  0  0  0  0  0  0  0  0  0  0
   -6.0990    0.8570   -4.2980 C   0  0  2  0  0  0  0  0  0  0  0  0
   -6.2880    0.4510   -5.6420 O   0  0  0  0  0  0  0  0  0  0  0  0
   -6.9760    2.0360   -3.8880 C   0  0  2  0  0  0  0  0  0  0  0  0
   -8.2950    1.9500   -4.3940 O   0  0  0  0  0  0  0  0  0  0  0  0
  1  2  1  0  0  0  0
  3  2  1  1  0  0  0
  3  4  1  0  0  0  0
  3 30  1  0  0  0  0
  4  5  1  0  0  0  0
  5  6  1  1  0  0  0
  5 28  1  0  0  0  0
  7  6  1  1  0  0  0
  7  8  1  0  0  0  0
  7 15  1  0  0  0  0
  8  9  1  6  0  0  0
  8 10  1  0  0  0  0
 10 11  1  1  0  0  0
 10 12  1  0  0  0  0
 12 13  1  0  0  0  0
 13 14  1  1  0  0  0
 13 15  1  0  0  0  0
 15 16  1  6  0  0  0
 17 16  1  1  0  0  0
 17 18  1  0  0  0  0
 17 26  1  0  0  0  0
 18 19  1  0  0  0  0
 19 20  1  1  0  0  0
 19 22  1  0  0  0  0
 20 21  1  0  0  0  0
 22 23  1  1  0  0  0
 22 24  1  0  0  0  0
 24 25  1  6  0  0  0
 24 26  1  0  0  0  0
 26 27  1  6  0  0  0
 28 29  1  6  0  0  0
 28 30  1  0  0  0  0
 30 31  1  6  0  0  0
A    1
O1
A    2
C1
A    3
C2
A    4
O2
A    5
C3
A    6
O3
A    7
C4
A    8
C5
A    9
O4
A   10
C6
A   11
N1
A   12
C7
A   13
C8
A   14
N2
A   15
C9
A   16
O5
A   17
C10
A   18
O6
A   19
C11
A   20
C12
A   21
N3
A   22
C13
A   23
O7
A   24
C14
A   25
O8
A   26
C15
A   27
N4
A   28
C16
A   29
O9
A   30
C17
A   31
O10
M  END
>  <InstanceId>
2KXM_RIO_A_101

>  <ChemCompId>
RIO

>  <PdbId>
2KXM

>  <ChainId>
A

>  <ResidueNumber>
101

>  <InsertionCode>


>  <Model>
1

>  <AltIds>


>  <MissingHeavyAtoms>
0

>  <ObservedFormula>
C17 N4 O10

>  <Name>
RIBOSTAMYCIN

>  <SystematicName>
(2R,3S,4R,5R,6R)-5-amino-2-(aminomethyl)-6-[(1R,2R,3S,4R,6S)-4,6-diamino-2-[(2S,3R,4S,5R)-3,4-dihydroxy-5-(hydroxymethyl)oxolan-2-yl]oxy-3-hydroxy-cyclohexyl]oxy-oxane-3,4-diol

>  <Synonyms>
5-AMINO-2-AMINOMETHYL-6-[4,6-DIAMINO-2-(3,4-DIHYDROXY-5-HYDROXYMETHYL-TETRAHYDRO-FURAN-2-YLOXY)-3-HYDROXY-CYCLOHEXYLOXY]-TETRAHYDRO-PYRAN-3,4-DIOL; (1R,2R,3S,4R,6S)-4,6-diamino-3-hydroxy-2-(beta-D-ribofuranosyloxy)cyclohexyl 2,6-diamino-2,6-dideoxy-alpha-D-glucopyranoside

>  <Type>
NON-POLYMER

>  <Formula>
C17 H34 N4 O10

>  <MolecularWeight>
454.473

>  <ModifiedDate>
2011-06-04

>  <Parent>


>  <OneLetterCode>


>  <SubcomponentList>


>  <AmbiguousFlag>
N

>  <InChI>
InChI=1S/C17H34N4O10/c18-2-6-10(24)12(26)8(21)16(28-6)30-14-5(20)1-4(19)9(23)15(14)31-17-13(27)11(25)7(3-22)29-17/h4-17,22-27H,1-3,18-21H2/t4-,5+,6-,7-,8-,9+,10-,11-,12-,13-,14-,15-,16-,17+/m1/s1

>  <InChIKey>
NSKGQURZWSPSBC-VVPCINPTSA-N

>  <SMILES>
C1[C@H]([C@@H]([C@H]([C@@H]([C@H]1N)O[C@@H]2[C@@H]([C@H]([C@@H]([C@H](O2)CN)O)O)N)O[C@H]3[C@@H]([C@@H]([C@H](O3)CO)O)O)O)N

$$$$
