REMARK  6 active torsions:
REMARK  status: ('A' for Active; 'I' for Inactive)
REMARK    1  A    between atoms: C_3  and  C_2 
REMARK    2  A    between atoms: C_5  and  O_6 
REMARK    3  A    between atoms: C_7  and  O_6 
REMARK    4  A    between atoms: C_15  and  O_16 
REMARK    5  A    between atoms: C_17  and  O_16 
REMARK    6  A    between atoms: C_19  and  C_20 
ROOT
ATOM      1  C   UNL d   1      -3.059   0.635  -2.587  0.00  0.00     0.180 C 
ATOM      2  C   UNL d   1      -3.238  -0.897  -2.541  0.00  0.00     0.218 C 
ATOM      3  O   UNL d   1      -3.746  -1.393  -3.766  0.00  0.00    -0.218 OA
ATOM      4  C   UNL d   1      -1.907  -1.624  -2.281  0.00  0.00     0.337 C 
ATOM      5  N   UNL d   1      -2.089  -3.082  -2.188  0.00  0.00     0.619 N 
ATOM      6  C   UNL d   1      -1.289  -1.081  -1.001  0.00  0.00     0.084 C 
ATOM      7  C   UNL d   1      -1.130   0.434  -1.120  0.00  0.00     0.333 C 
ATOM      8  N   UNL d   1      -0.403   0.950   0.042  0.00  0.00     0.619 N 
ATOM      9  C   UNL d   1      -2.501   1.102  -1.268  0.00  0.00     0.184 C 
ENDROOT
BRANCH   9  10
ATOM     10  O   UNL d   1      -2.258   2.513  -1.277  0.00  0.00    -0.327 OA
BRANCH  10  11
ATOM     11  C   UNL d   1      -3.319   3.344  -0.820  0.00  0.00     0.276 C 
ATOM     12  O   UNL d   1      -3.341   3.438   0.596  0.00  0.00    -0.327 OA
ATOM     13  C   UNL d   1      -2.273   4.178   1.176  0.00  0.00     0.190 C 
ATOM     14  C   UNL d   1      -2.315   5.634   0.681  0.00  0.00     0.214 C 
ATOM     15  O   UNL d   1      -1.243   6.382   1.225  0.00  0.00    -0.218 OA
ATOM     16  C   UNL d   1      -2.215   5.643  -0.847  0.00  0.00     0.227 C 
ATOM     17  O   UNL d   1      -2.414   6.958  -1.313  0.00  0.00    -0.218 OA
ATOM     18  C   UNL d   1      -3.256   4.722  -1.493  0.00  0.00     0.390 C 
ATOM     19  N   UNL d   1      -2.998   4.606  -2.937  0.00  0.00     0.624 N 
BRANCH  13  20
ATOM     20  C   UNL d   1      -2.369   4.189   2.702  0.00  0.00     0.370 C 
ATOM     21  N   UNL d   1      -2.678   2.878   3.234  0.00  0.00     0.621 N 
ENDBRANCH  13  20
ENDBRANCH  10  11
ENDBRANCH   9  10
BRANCH   1  22
ATOM     22  O   UNL d   1      -4.307   1.274  -2.776  0.00  0.00    -0.326 OA
BRANCH  22  23
ATOM     23  C   UNL d   1      -4.698   1.446  -4.129  0.00  0.00     0.270 C 
ATOM     24  O   UNL d   1      -4.815   2.825  -4.438  0.00  0.00    -0.326 OA
ATOM     25  C   UNL d   1      -6.178   3.224  -4.424  0.00  0.00     0.184 C 
ATOM     26  C   UNL d   1      -6.976   2.036  -3.888  0.00  0.00     0.217 C 
ATOM     27  C   UNL d   1      -6.099   0.857  -4.298  0.00  0.00     0.241 C 
ATOM     28  O   UNL d   1      -8.295   1.950  -4.394  0.00  0.00    -0.218 OA
ATOM     29  O   UNL d   1      -6.288   0.451  -5.642  0.00  0.00    -0.215 OA
BRANCH  25  30
ATOM     30  C   UNL d   1      -6.350   4.479  -3.566  0.00  0.00     0.214 C 
ATOM     31  O   UNL d   1      -7.653   5.003  -3.698  0.00  0.00    -0.218 OA
ENDBRANCH  25  30
ENDBRANCH  22  23
ENDBRANCH   1  22
TORSDOF 6
