2KXM_RIO_A_101
 OpenBabel10091713573D
Coordinates from PDB:2KXM:A:101 Model:1 without hydrogens
 65 67  0  0  1  0  0  0  0  0999 V2000
   -7.6530    5.0030   -3.6980 O   0  0  0  0  0  0  0  0  0  0  0  0
   -6.3500    4.4790   -3.5660 C   0  0  0  0  0  0  0  0  0  0  0  0
   -6.1780    3.2240   -4.4240 C   0  0  1  0  0  0  0  0  0  0  0  0
   -4.8150    2.8250   -4.4380 O   0  0  0  0  0  0  0  0  0  0  0  0
   -4.6980    1.4460   -4.1290 C   0  0  1  0  0  0  0  0  0  0  0  0
   -4.3070    1.2740   -2.7760 O   0  0  0  0  0  0  0  0  0  0  0  0
   -3.0590    0.6350   -2.5870 C   0  0  2  0  0  0  0  0  0  0  0  0
   -3.2380   -0.8970   -2.5410 C   0  0  1  0  0  0  0  0  0  0  0  0
   -3.7460   -1.3930   -3.7660 O   0  0  0  0  0  0  0  0  0  0  0  0
   -1.9070   -1.6240   -2.2810 C   0  0  2  0  0  0  0  0  0  0  0  0
   -2.0890   -3.0820   -2.1880 N   0  0  0  0  0  0  0  0  0  0  0  0
   -1.2890   -1.0810   -1.0010 C   0  0  0  0  0  0  0  0  0  0  0  0
   -1.1300    0.4340   -1.1200 C   0  0  2  0  0  0  0  0  0  0  0  0
   -0.4030    0.9500    0.0420 N   0  0  0  0  0  0  0  0  0  0  0  0
   -2.5010    1.1020   -1.2680 C   0  0  1  0  0  0  0  0  0  0  0  0
   -2.2580    2.5130   -1.2770 O   0  0  0  0  0  0  0  0  0  0  0  0
   -3.3190    3.3440   -0.8200 C   0  0  1  0  0  0  0  0  0  0  0  0
   -3.3410    3.4380    0.5960 O   0  0  0  0  0  0  0  0  0  0  0  0
   -2.2730    4.1780    1.1760 C   0  0  2  0  0  0  0  0  0  0  0  0
   -2.3690    4.1890    2.7020 C   0  0  0  0  0  0  0  0  0  0  0  0
   -2.6780    2.8780    3.2340 N   0  0  0  0  0  0  0  0  0  0  0  0
   -2.3150    5.6340    0.6810 C   0  0  1  0  0  0  0  0  0  0  0  0
   -1.2430    6.3820    1.2250 O   0  0  0  0  0  0  0  0  0  0  0  0
   -2.2150    5.6430   -0.8470 C   0  0  2  0  0  0  0  0  0  0  0  0
   -2.4140    6.9580   -1.3130 O   0  0  0  0  0  0  0  0  0  0  0  0
   -3.2560    4.7220   -1.4930 C   0  0  1  0  0  0  0  0  0  0  0  0
   -2.9980    4.6060   -2.9370 N   0  0  0  0  0  0  0  0  0  0  0  0
   -6.0990    0.8570   -4.2980 C   0  0  2  0  0  0  0  0  0  0  0  0
   -6.2880    0.4510   -5.6420 O   0  0  0  0  0  0  0  0  0  0  0  0
   -6.9760    2.0360   -3.8880 C   0  0  2  0  0  0  0  0  0  0  0  0
   -8.2950    1.9500   -4.3940 O   0  0  0  0  0  0  0  0  0  0  0  0
   -7.7398    5.7964   -3.1468 H   0  0  0  0  0  0  0  0  0  0  0  0
   -6.1749    4.2292   -2.5404 H   0  0  0  0  0  0  0  0  0  0  0  0
   -5.6491    5.2174   -3.8951 H   0  0  0  0  0  0  0  0  0  0  0  0
   -6.5302    3.4819   -5.4009 H   0  0  0  0  0  0  0  0  0  0  0  0
   -3.9704    0.9771   -4.7580 H   0  0  0  0  0  0  0  0  0  0  0  0
   -2.4014    0.8771   -3.3956 H   0  0  0  0  0  0  0  0  0  0  0  0
   -3.9235   -1.0843   -1.7411 H   0  0  0  0  0  0  0  0  0  0  0  0
   -3.1103   -1.2131   -4.4762 H   0  0  0  0  0  0  0  0  0  0  0  0
   -1.2522   -1.4430   -3.1077 H   0  0  0  0  0  0  0  0  0  0  0  0
   -2.7100   -3.2981   -1.4082 H   0  0  0  0  0  0  0  0  0  0  0  0
   -1.1846   -3.5285   -2.0362 H   0  0  0  0  0  0  0  0  0  0  0  0
   -0.3299   -1.5302   -0.8487 H   0  0  0  0  0  0  0  0  0  0  0  0
   -1.9240   -1.3106   -0.1710 H   0  0  0  0  0  0  0  0  0  0  0  0
   -0.5614    0.6640   -1.9967 H   0  0  0  0  0  0  0  0  0  0  0  0
   -0.9278    0.7416    0.8914 H   0  0  0  0  0  0  0  0  0  0  0  0
   -0.2898    1.9596   -0.0486 H   0  0  0  0  0  0  0  0  0  0  0  0
   -3.1918    0.8636   -0.4864 H   0  0  0  0  0  0  0  0  0  0  0  0
   -4.2439    2.8881   -1.1056 H   0  0  0  0  0  0  0  0  0  0  0  0
   -1.3582    3.7062    0.8837 H   0  0  0  0  0  0  0  0  0  0  0  0
   -3.1393    4.8714    2.9951 H   0  0  0  0  0  0  0  0  0  0  0  0
   -1.4186    4.4889    3.0915 H   0  0  0  0  0  0  0  0  0  0  0  0
   -3.5820    2.5701    2.8758 H   0  0  0  0  0  0  0  0  0  0  0  0
   -2.7136    2.9241    4.2523 H   0  0  0  0  0  0  0  0  0  0  0  0
   -3.2348    6.0802    0.9969 H   0  0  0  0  0  0  0  0  0  0  0  0
   -0.4008    5.9892    0.9470 H   0  0  0  0  0  0  0  0  0  0  0  0
   -1.2434    5.2850   -1.1165 H   0  0  0  0  0  0  0  0  0  0  0  0
   -3.2994    7.2610   -1.0576 H   0  0  0  0  0  0  0  0  0  0  0  0
   -4.2186    5.1666   -1.3494 H   0  0  0  0  0  0  0  0  0  0  0  0
   -2.0819    4.1829   -3.0858 H   0  0  0  0  0  0  0  0  0  0  0  0
   -3.0172    5.5333   -3.3614 H   0  0  0  0  0  0  0  0  0  0  0  0
   -6.3086   -0.0214   -3.7240 H   0  0  0  0  0  0  0  0  0  0  0  0
   -6.1151    1.2001   -6.2334 H   0  0  0  0  0  0  0  0  0  0  0  0
   -7.1540    2.0966   -2.8347 H   0  0  0  0  0  0  0  0  0  0  0  0
   -8.2667    1.8888   -5.3617 H   0  0  0  0  0  0  0  0  0  0  0  0
  1  2  1  0  0  0  0
  1 32  1  0  0  0  0
  2  3  1  0  0  0  0
  2 33  1  0  0  0  0
  2 34  1  0  0  0  0
  3  4  1  0  0  0  0
  3 30  1  0  0  0  0
  3 35  1  6  0  0  0
  4  5  1  0  0  0  0
  5  6  1  0  0  0  0
  5 28  1  0  0  0  0
  5 36  1  6  0  0  0
  6  7  1  0  0  0  0
  7  8  1  0  0  0  0
  7 15  1  0  0  0  0
  7 37  1  6  0  0  0
  8  9  1  0  0  0  0
  8 10  1  0  0  0  0
  8 38  1  1  0  0  0
  9 39  1  0  0  0  0
 10 11  1  0  0  0  0
 10 12  1  0  0  0  0
 10 40  1  6  0  0  0
 11 41  1  0  0  0  0
 11 42  1  0  0  0  0
 12 13  1  0  0  0  0
 12 43  1  0  0  0  0
 12 44  1  0  0  0  0
 13 14  1  0  0  0  0
 13 15  1  0  0  0  0
 13 45  1  6  0  0  0
 14 46  1  0  0  0  0
 14 47  1  0  0  0  0
 15 16  1  0  0  0  0
 15 48  1  1  0  0  0
 16 17  1  0  0  0  0
 17 18  1  0  0  0  0
 17 26  1  0  0  0  0
 17 49  1  6  0  0  0
 18 19  1  0  0  0  0
 19 20  1  0  0  0  0
 19 22  1  0  0  0  0
 19 50  1  6  0  0  0
 20 21  1  0  0  0  0
 20 51  1  0  0  0  0
 20 52  1  0  0  0  0
 21 53  1  0  0  0  0
 21 54  1  0  0  0  0
 22 23  1  0  0  0  0
 22 24  1  0  0  0  0
 22 55  1  1  0  0  0
 23 56  1  0  0  0  0
 24 25  1  0  0  0  0
 24 26  1  0  0  0  0
 24 57  1  6  0  0  0
 25 58  1  0  0  0  0
 26 27  1  0  0  0  0
 26 59  1  1  0  0  0
 27 60  1  0  0  0  0
 27 61  1  0  0  0  0
 28 29  1  0  0  0  0
 28 30  1  0  0  0  0
 28 62  1  1  0  0  0
 29 63  1  0  0  0  0
 30 31  1  0  0  0  0
 30 64  1  1  0  0  0
 31 65  1  0  0  0  0
M  END
$$$$
