@<TRIPOS>MOLECULE
2KXM_RIO_A_101
 31 33 0 0 0
SMALL
GASTEIGER
****
Coordinates from PDB:2KXM:A:101 Model:1 without hydrogens
@<TRIPOS>ATOM
      1 O          -7.6530    5.0030   -3.6980 O.3     1  UNL1       -0.2176
      2 C          -6.3500    4.4790   -3.5660 C.3     1  UNL1        0.2142
      3 C          -6.1780    3.2240   -4.4240 C.3     1  UNL1        0.1836
      4 O          -4.8150    2.8250   -4.4380 O.3     1  UNL1       -0.3256
      5 C          -4.6980    1.4460   -4.1290 C.3     1  UNL1        0.2695
      6 O          -4.3070    1.2740   -2.7760 O.3     1  UNL1       -0.3258
      7 C          -3.0590    0.6350   -2.5870 C.3     1  UNL1        0.1779
      8 C          -3.2380   -0.8970   -2.5410 C.3     1  UNL1        0.1989
      9 O          -3.7460   -1.3930   -3.7660 O.3     1  UNL1       -0.2189
     10 C          -1.9070   -1.6240   -2.2810 C.3     1  UNL1        0.1261
     11 N          -2.0890   -3.0820   -2.1880 N.3     1  UNL1       -0.1301
     12 C          -1.2890   -1.0810   -1.0010 C.3     1  UNL1        0.0433
     13 C          -1.1300    0.4340   -1.1200 C.3     1  UNL1        0.1230
     14 N          -0.4030    0.9500    0.0420 N.3     1  UNL1       -0.1302
     15 C          -2.5010    1.1020   -1.2680 C.3     1  UNL1        0.1649
     16 O          -2.2580    2.5130   -1.2770 O.3     1  UNL1       -0.3278
     17 C          -3.3190    3.3440   -0.8200 C.3     1  UNL1        0.2561
     18 O          -3.3410    3.4380    0.5960 O.3     1  UNL1       -0.3276
     19 C          -2.2730    4.1780    1.1760 C.3     1  UNL1        0.1696
     20 C          -2.3690    4.1890    2.7020 C.3     1  UNL1        0.1415
     21 N          -2.6780    2.8780    3.2340 N.3     1  UNL1       -0.1286
     22 C          -2.3150    5.6340    0.6810 C.3     1  UNL1        0.2122
     23 O          -1.2430    6.3820    1.2250 O.3     1  UNL1       -0.2177
     24 C          -2.2150    5.6430   -0.8470 C.3     1  UNL1        0.2070
     25 O          -2.4140    6.9580   -1.3130 O.3     1  UNL1       -0.2186
     26 C          -3.2560    4.7220   -1.4930 C.3     1  UNL1        0.1807
     27 N          -2.9980    4.6060   -2.9370 N.3     1  UNL1       -0.1248
     28 C          -6.0990    0.8570   -4.2980 C.3     1  UNL1        0.2404
     29 O          -6.2880    0.4510   -5.6420 O.3     1  UNL1       -0.2149
     30 C          -6.9760    2.0360   -3.8880 C.3     1  UNL1        0.2168
     31 O          -8.2950    1.9500   -4.3940 O.3     1  UNL1       -0.2175
@<TRIPOS>BOND
     1     1     2    1
     2     3     2    1
     3     3     4    1
     4     3    30    1
     5     4     5    1
     6     5     6    1
     7     5    28    1
     8     7     6    1
     9     7     8    1
    10     7    15    1
    11     8     9    1
    12     8    10    1
    13    10    11    1
    14    10    12    1
    15    12    13    1
    16    13    14    1
    17    13    15    1
    18    15    16    1
    19    17    16    1
    20    17    18    1
    21    17    26    1
    22    18    19    1
    23    19    20    1
    24    19    22    1
    25    20    21    1
    26    22    23    1
    27    22    24    1
    28    24    25    1
    29    24    26    1
    30    26    27    1
    31    28    29    1
    32    28    30    1
    33    30    31    1
