@<TRIPOS>MOLECULE
4YAZ_4BW_R_106
 45 51 0 0 0
SMALL
GASTEIGER
****
Coordinates from PDB:4YAZ:R:106 Model:1 without hydrogens
@<TRIPOS>ATOM
      1 O          99.1080   16.7210  101.0260 O.2     1  UNL1       -0.2633
      2 C          99.6780   16.2970   99.8270 C.ar    1  UNL1        0.3023
      3 N         100.8830   15.7520   99.7280 N.ar    1  UNL1       -0.1709
      4 C         101.3340   15.4020   98.5490 C.ar    1  UNL1        0.2606
      5 N         102.6540   14.8610   98.4890 N.pl3   1  UNL1       -0.0859
      6 N         100.6900   15.5350   97.4190 N.ar    1  UNL1       -0.1918
      7 C          99.4490   16.0740   97.4450 C.ar    1  UNL1        0.1723
      8 C          98.9120   16.4550   98.6500 C.ar    1  UNL1        0.1748
      9 N          97.7070   16.9550   98.4080 N.ar    1  UNL1       -0.2173
     10 C          97.5080   16.8810   97.1320 C.ar    1  UNL1        0.1817
     11 N          98.5130   16.3530   96.5370 N.ar    1  UNL1       -0.2693
     12 C          98.6020   16.1160   95.1540 C.3     1  UNL1        0.2408
     13 C          98.9160   14.8580   94.9060 C.3     1  UNL1        0.2309
     14 O          99.7930   14.6410   93.8650 O.3     1  UNL1       -0.2156
     15 O          97.2590   16.3150   94.5090 O.3     1  UNL1       -0.3307
     16 C          96.8110   14.9170   94.0490 C.3     1  UNL1        0.1773
     17 C          95.4020   14.5800   94.3300 C.3     1  UNL1        0.1812
     18 O          94.9610   15.1240   95.5090 O.3     1  UNL1       -0.3114
     19 P          93.7000   14.4340   96.1140 P.3     1  UNL1        0.2141
     20 O          93.5840   12.9550   95.7230 O.3     1  UNL1       -0.3112
     21 O          93.5390   14.6310   97.5120 O.3     1  UNL1       -0.4373
     22 O          92.6080   15.1140   95.5490 O.2     1  UNL1       -0.5172
     23 C          97.5590   14.0540   94.5520 C.3     1  UNL1        0.1860
     24 O          97.7840   12.9630   93.6670 O.3     1  UNL1       -0.3112
     25 P          98.2170   11.6650   94.3780 P.3     1  UNL1        0.2141
     26 O          99.4620   11.6930   95.1060 O.2     1  UNL1       -0.5172
     27 O          98.4320   10.6960   93.3910 O.3     1  UNL1       -0.4373
     28 O          97.0190   11.1300   95.2280 O.3     1  UNL1       -0.3114
     29 C          95.6860   11.1020   94.6930 C.3     1  UNL1        0.1812
     30 C          94.6190   10.9610   95.6950 C.3     1  UNL1        0.1773
     31 O          95.0820    9.8500   96.7600 O.3     1  UNL1       -0.3307
     32 C          94.4990   12.0270   96.3500 C.3     1  UNL1        0.1860
     33 C          94.0710   11.5630   97.7340 C.3     1  UNL1        0.2309
     34 O          92.8220   11.3880   97.7680 O.3     1  UNL1       -0.2156
     35 C          94.7620   10.2110   97.9120 C.3     1  UNL1        0.2408
     36 N          95.7860   10.1380   98.9180 N.ar    1  UNL1       -0.2693
     37 C          96.9780    9.6860   98.7560 C.ar    1  UNL1        0.1816
     38 N          97.6530    9.7150   99.8920 N.ar    1  UNL1       -0.2193
     39 C          96.8830   10.1600  100.8220 C.ar    1  UNL1        0.1518
     40 C          95.6430   10.4510  100.2140 C.ar    1  UNL1        0.1692
     41 N          94.6150   10.8990  100.9660 N.ar    1  UNL1       -0.2048
     42 C          94.6950   11.1560  102.2660 C.ar    1  UNL1        0.2016
     43 N          95.8740   10.8870  102.8860 N.ar    1  UNL1       -0.2040
     44 C          96.9520   10.4200  102.2280 C.ar    1  UNL1        0.1919
     45 N          98.1740   10.1770  102.9220 N.pl3   1  UNL1       -0.1054
@<TRIPOS>BOND
     1     2     8   ar
     2     2     1    2
     3     3     2   ar
     4     4     6   ar
     5     4     3   ar
     6     5     4    1
     7     6     7   ar
     8     7    11   ar
     9     7     8   ar
    10     8     9   ar
    11    10     9   ar
    12    11    10   ar
    13    12    11    1
    14    12    15    1
    15    13    14    1
    16    13    12    1
    17    13    23    1
    18    15    16    1
    19    16    17    1
    20    17    18    1
    21    18    19    1
    22    19    22    2
    23    19    20    1
    24    19    21    1
    25    23    24    1
    26    23    16    1
    27    25    26    2
    28    25    24    1
    29    25    28    1
    30    27    25    1
    31    28    29    1
    32    30    29    1
    33    30    32    1
    34    31    30    1
    35    31    35    1
    36    32    33    1
    37    32    20    1
    38    33    34    1
    39    35    36    1
    40    35    33    1
    41    36    40   ar
    42    37    36   ar
    43    38    37   ar
    44    38    39   ar
    45    39    40   ar
    46    40    41   ar
    47    42    41   ar
    48    43    42   ar
    49    44    39   ar
    50    44    43   ar
    51    45    44    1
