REMARK  2 active torsions:
REMARK  status: ('A' for Active; 'I' for Inactive)
REMARK    1  A    between atoms: C_12  and  N_11 
REMARK    2  A    between atoms: C_35  and  N_36 
ROOT
ATOM      1  C   UNL d   1      98.602  16.116  95.154  0.00  0.00     0.241 C 
ATOM      2  C   UNL d   1      98.916  14.858  94.906  0.00  0.00     0.231 C 
ATOM      3  O   UNL d   1      99.793  14.641  93.865  0.00  0.00    -0.216 OA
ATOM      4  O   UNL d   1      97.259  16.315  94.509  0.00  0.00    -0.331 OA
ATOM      5  C   UNL d   1      96.811  14.917  94.049  0.00  0.00     0.178 C 
ATOM      6  C   UNL d   1      95.402  14.580  94.330  0.00  0.00     0.187 C 
ATOM      7  O   UNL d   1      94.961  15.124  95.509  0.00  0.00    -0.268 OA
ATOM      8  P   UNL d   1      93.700  14.434  96.114  0.00  0.00     0.410 P 
ATOM      9  O   UNL d   1      93.584  12.955  95.723  0.00  0.00    -0.263 OA
ATOM     10  O   UNL d   1      93.539  14.631  97.512  0.00  0.00    -0.624 OA
ATOM     11  O   UNL d   1      92.608  15.114  95.549  0.00  0.00    -0.624 OA
ATOM     12  C   UNL d   1      97.559  14.054  94.552  0.00  0.00     0.191 C 
ATOM     13  O   UNL d   1      97.784  12.963  93.667  0.00  0.00    -0.268 OA
ATOM     14  P   UNL d   1      98.217  11.665  94.378  0.00  0.00     0.410 P 
ATOM     15  O   UNL d   1      99.462  11.693  95.106  0.00  0.00    -0.624 OA
ATOM     16  O   UNL d   1      98.432  10.696  93.391  0.00  0.00    -0.624 OA
ATOM     17  O   UNL d   1      97.019  11.130  95.228  0.00  0.00    -0.268 OA
ATOM     18  C   UNL d   1      95.686  11.102  94.693  0.00  0.00     0.187 C 
ATOM     19  C   UNL d   1      94.619  10.961  95.695  0.00  0.00     0.183 C 
ATOM     20  O   UNL d   1      95.082   9.850  96.760  0.00  0.00    -0.327 OA
ATOM     21  C   UNL d   1      94.499  12.027  96.350  0.00  0.00     0.218 C 
ATOM     22  C   UNL d   1      94.071  11.563  97.734  0.00  0.00     0.230 C 
ATOM     23  O   UNL d   1      92.822  11.388  97.768  0.00  0.00    -0.289 OA
ATOM     24  C   UNL d   1      94.762  10.211  97.912  0.00  0.00     0.270 C 
ENDROOT
BRANCH   1  25
ATOM     25  N   UNL d   1      98.513  16.353  96.537  0.00  0.00    -0.270 N 
ATOM     26  C   UNL d   1      99.449  16.074  97.445  0.00  0.00     0.171 A 
ATOM     27  N   UNL d   1     100.690  15.535  97.419  0.00  0.00    -0.195 NA
ATOM     28  C   UNL d   1      98.912  16.455  98.650  0.00  0.00     0.161 A 
ATOM     29  C   UNL d   1     101.334  15.402  98.549  0.00  0.00     0.241 A 
ATOM     30  N   UNL d   1     100.883  15.752  99.728  0.00  0.00    -0.187 NA
ATOM     31  N   UNL d   1     102.654  14.861  98.489  0.00  0.00    -0.059 NA
ATOM     32  C   UNL d   1      99.678  16.297  99.827  0.00  0.00     0.236 A 
ATOM     33  O   UNL d   1      99.108  16.721 101.026  0.00  0.00    -0.167 OA
ATOM     34  N   UNL d   1      97.707  16.955  98.408  0.00  0.00    -0.219 NA
ATOM     35  C   UNL d   1      97.508  16.881  97.132  0.00  0.00     0.182 A 
ENDBRANCH   1  25
BRANCH  24  36
ATOM     36  N   UNL d   1      95.786  10.138  98.918  0.00  0.00    -0.266 N 
ATOM     37  C   UNL d   1      95.643  10.451 100.214  0.00  0.00     0.169 A 
ATOM     38  C   UNL d   1      96.883  10.160 100.822  0.00  0.00     0.148 A 
ATOM     39  N   UNL d   1      94.615  10.899 100.966  0.00  0.00    -0.205 NA
ATOM     40  N   UNL d   1      97.653   9.715  99.892  0.00  0.00    -0.220 NA
ATOM     41  C   UNL d   1      96.952  10.420 102.228  0.00  0.00     0.173 A 
ATOM     42  C   UNL d   1      96.978   9.686  98.756  0.00  0.00     0.182 A 
ATOM     43  N   UNL d   1      95.874  10.887 102.886  0.00  0.00    -0.208 NA
ATOM     44  N   UNL d   1      98.174  10.177 102.922  0.00  0.00    -0.078 NA
ATOM     45  C   UNL d   1      94.695  11.156 102.266  0.00  0.00     0.201 A 
ENDBRANCH  24  36
TORSDOF 2
