@<TRIPOS>MOLECULE
2CKY_TPP_A_1084
 45 46 0 0 0
SMALL
GASTEIGER

@<TRIPOS>ATOM
      1 N          -0.8306   -1.9651   -3.6372 N.ar    1  UNL1       -0.2400
      2 C           0.5012   -2.1077   -3.7046 C.ar    1  UNL1        0.1280
      3 C           1.1950   -1.6348   -4.9441 C.3     1  UNL1       -0.0046
      4 N           1.2452   -2.6054   -2.7034 N.ar    1  UNL1       -0.2176
      5 C           0.6327   -2.8479   -1.5353 C.ar    1  UNL1        0.1289
      6 N           1.4373   -3.4703   -0.5844 N.pl3   1  UNL1       -0.3427
      7 C          -0.7034   -2.5746   -1.3126 C.ar    1  UNL1        0.0747
      8 C          -1.4007   -2.2164   -2.4478 C.ar    1  UNL1        0.0421
      9 C          -1.3001   -2.6472    0.0606 C.3     1  UNL1        0.1811
     10 N          -2.7716   -2.4611    0.0837 N.ar    1  UNL1       -0.1903
     11 C          -3.5470   -3.5282    0.0209 C.ar    1  UNL1        0.2109
     12 S          -5.2010   -3.1078   -0.0086 S.2     1  UNL1       -0.0273
     13 C          -4.8343   -1.4260    0.0401 C.ar    1  UNL1        0.0636
     14 C          -3.4630   -1.2478    0.1904 C.ar    1  UNL1        0.1915
     15 C          -2.7417    0.0421    0.3546 C.3     1  UNL1        0.0216
     16 C          -5.9554   -0.4183   -0.1195 C.3     1  UNL1        0.0088
     17 C          -6.1661   -0.1084   -1.6070 C.3     1  UNL1        0.0637
     18 O          -7.2230    0.8210   -1.8507 O.3     1  UNL1       -0.2860
     19 P          -7.3691    1.1677   -3.5393 P.3     1  UNL1        0.4834
     20 O          -8.5548    2.0598   -3.1798 O.2     1  UNL1       -0.2269
     21 O          -6.0246    2.0864   -3.4368 O.3     1  UNL1       -0.3022
     22 O          -7.5152    1.5144   -5.2279 O.3     1  UNL1       -0.1862
     23 P          -8.4132    2.9777   -5.4405 P.3     1  UNL1        0.4808
     24 O          -7.2224    3.6909   -6.0786 O.2     1  UNL1       -0.2271
     25 O          -9.2871    2.3093   -6.6420 O.3     1  UNL1       -0.3023
     26 O          -9.3111    4.4410   -5.6532 O.3     1  UNL1       -0.3023
     27 H           0.6064   -0.8480   -5.4305 H       1  UNL1        0.0308
     28 H           1.3349   -2.4581   -5.6462 H       1  UNL1        0.0308
     29 H           2.1718   -1.2074   -4.6915 H       1  UNL1        0.0308
     30 H           2.3537   -3.6088   -1.0249 H       1  UNL1        0.1437
     31 H           1.5654   -2.9788    0.2896 H       1  UNL1        0.1437
     32 H          -2.4791   -2.0994   -2.4696 H       1  UNL1        0.0836
     33 H          -0.8328   -1.8894    0.6981 H       1  UNL1        0.1087
     34 H          -1.0749   -3.6194    0.5178 H       1  UNL1        0.1087
     35 H          -3.1968   -4.5544   -0.0285 H       1  UNL1        0.1462
     36 H          -3.3573    0.7545    0.9142 H       1  UNL1        0.0336
     37 H          -2.5172    0.4887   -0.6193 H       1  UNL1        0.0336
     38 H          -1.8104   -0.0577    0.9183 H       1  UNL1        0.0336
     39 H          -5.7284    0.5036    0.4296 H       1  UNL1        0.0343
     40 H          -6.8880   -0.7981    0.3170 H       1  UNL1        0.0343
     41 H          -6.3930   -1.0285   -2.1568 H       1  UNL1        0.0569
     42 H          -5.2312    0.2963   -2.0115 H       1  UNL1        0.0569
     43 H          -6.2405    3.0112   -3.2091 H       1  UNL1        0.2220
     44 H         -10.1716    2.0383   -6.3409 H       1  UNL1        0.2220
     45 H          -8.7653    4.9201   -6.3129 H       1  UNL1        0.2220
@<TRIPOS>BOND
     1     1     2   ar
     2     1     8   ar
     3     2     3    1
     4     2     4   ar
     5     3    27    1
     6     3    28    1
     7     3    29    1
     8     4     5   ar
     9     5     6    1
    10     5     7   ar
    11     6    30    1
    12     6    31    1
    13     7     8   ar
    14     7     9    1
    15     8    32    1
    16     9    10    1
    17     9    33    1
    18     9    34    1
    19    10    11   ar
    20    10    14   ar
    21    11    12   ar
    22    11    35    1
    23    12    13   ar
    24    13    14   ar
    25    13    16    1
    26    14    15    1
    27    15    36    1
    28    15    37    1
    29    15    38    1
    30    16    17    1
    31    16    39    1
    32    16    40    1
    33    17    18    1
    34    17    41    1
    35    17    42    1
    36    18    19    1
    37    19    20    2
    38    19    21    1
    39    19    22    1
    40    21    43    1
    41    22    23    1
    42    23    24    2
    43    23    25    1
    44    23    26    1
    45    25    44    1
    46    26    45    1
