REMARK  12 active torsions:
REMARK  status: ('A' for Active; 'I' for Inactive)
REMARK    1  A    between atoms: C_5  and  N_6 
REMARK    2  A    between atoms: C_7  and  C_9 
REMARK    3  A    between atoms: C_9  and  N_10 
REMARK    4  A    between atoms: C_13  and  C_16 
REMARK    5  A    between atoms: C_16  and  C_17 
REMARK    6  A    between atoms: C_17  and  O_18 
REMARK    7  A    between atoms: O_18  and  P_19 
REMARK    8  A    between atoms: P_19  and  O_21 
REMARK    9  A    between atoms: P_19  and  O_22 
REMARK   10  A    between atoms: O_22  and  P_23 
REMARK   11  A    between atoms: P_23  and  O_25 
REMARK   12  A    between atoms: P_23  and  O_26 
ROOT
ATOM      1  N   UNL d   1      -2.772  -2.461   0.084  0.00  0.00    -0.349 N 
ATOM      2  C   UNL d   1      -3.547  -3.528   0.021  0.00  0.00     0.141 C 
ATOM      3  S   UNL d   1      -5.201  -3.108  -0.009  0.00  0.00    -0.087 SA
ATOM      4  C   UNL d   1      -4.834  -1.426   0.040  0.00  0.00     0.008 C 
ATOM      5  C   UNL d   1      -3.463  -1.248   0.190  0.00  0.00     0.021 C 
ATOM      6  C   UNL d   1      -2.742   0.042   0.355  0.00  0.00     0.069 C 
ENDROOT
BRANCH   4   7
ATOM      7  C   UNL d   1      -5.955  -0.418  -0.119  0.00  0.00     0.075 C 
BRANCH   7   8
ATOM      8  C   UNL d   1      -6.166  -0.108  -1.607  0.00  0.00     0.185 C 
BRANCH   8   9
ATOM      9  O   UNL d   1      -7.223   0.821  -1.851  0.00  0.00    -0.296 OA
BRANCH   9  10
ATOM     10  P   UNL d   1      -7.369   1.168  -3.539  0.00  0.00     0.401 P 
ATOM     11  O   UNL d   1      -8.555   2.060  -3.180  0.00  0.00    -0.631 OA
BRANCH  10  12
ATOM     12  O   UNL d   1      -6.025   2.086  -3.437  0.00  0.00    -0.307 OA
ATOM     13  H   UNL d   1      -6.240   3.011  -3.209  0.00  0.00     0.222 HD
ENDBRANCH  10  12
BRANCH  10  14
ATOM     14  O   UNL d   1      -7.515   1.514  -5.228  0.00  0.00    -0.195 OA
BRANCH  14  15
ATOM     15  P   UNL d   1      -8.413   2.978  -5.441  0.00  0.00     0.399 P 
ATOM     16  O   UNL d   1      -7.222   3.691  -6.079  0.00  0.00    -0.631 OA
BRANCH  15  17
ATOM     17  O   UNL d   1      -9.287   2.309  -6.642  0.00  0.00    -0.307 OA
ATOM     18  H   UNL d   1     -10.172   2.038  -6.341  0.00  0.00     0.222 HD
ENDBRANCH  15  17
BRANCH  15  19
ATOM     19  O   UNL d   1      -9.311   4.441  -5.653  0.00  0.00    -0.307 OA
ATOM     20  H   UNL d   1      -8.765   4.920  -6.313  0.00  0.00     0.222 HD
ENDBRANCH  15  19
ENDBRANCH  14  15
ENDBRANCH  10  14
ENDBRANCH   9  10
ENDBRANCH   8   9
ENDBRANCH   7   8
ENDBRANCH   4   7
BRANCH   1  21
ATOM     21  C   UNL d   1      -1.300  -2.647   0.061  0.00  0.00     0.172 C 
BRANCH  21  22
ATOM     22  C   UNL d   1      -0.703  -2.575  -1.313  0.00  0.00     0.018 C 
ATOM     23  C   UNL d   1       0.633  -2.848  -1.535  0.00  0.00     0.112 C 
ATOM     24  N   UNL d   1       1.245  -2.605  -2.703  0.00  0.00    -0.222 NA
ATOM     25  C   UNL d   1       0.501  -2.108  -3.705  0.00  0.00     0.123 C 
ATOM     26  N   UNL d   1      -0.831  -1.965  -3.637  0.00  0.00    -0.245 NA
ATOM     27  C   UNL d   1       1.195  -1.635  -4.944  0.00  0.00     0.093 C 
ATOM     28  C   UNL d   1      -1.401  -2.216  -2.448  0.00  0.00     0.131 C 
BRANCH  23  29
ATOM     29  N   UNL d   1       1.437  -3.470  -0.584  0.00  0.00    -0.286 NA
ATOM     30  H   UNL d   1       2.354  -3.609  -1.025  0.00  0.00     0.125 HD
ATOM     31  H   UNL d   1       1.565  -2.979   0.290  0.00  0.00     0.125 HD
ENDBRANCH  23  29
ENDBRANCH  21  22
ENDBRANCH   1  21
TORSDOF 12
