2CKY_TPP_A_1084
 OpenBabel03221817193D

 45 46  0  0  0  0  0  0  0  0999 V2000
   -0.8306   -1.9651   -3.6372 N   0  0  0  0  0  0  0  0  0  0  0  0
    0.5012   -2.1077   -3.7046 C   0  0  0  0  0  0  0  0  0  0  0  0
    1.1950   -1.6348   -4.9441 C   0  0  0  0  0  0  0  0  0  0  0  0
    1.2452   -2.6054   -2.7034 N   0  0  0  0  0  0  0  0  0  0  0  0
    0.6327   -2.8479   -1.5353 C   0  0  0  0  0  0  0  0  0  0  0  0
    1.4373   -3.4703   -0.5844 N   0  0  0  0  0  0  0  0  0  0  0  0
   -0.7034   -2.5746   -1.3126 C   0  0  0  0  0  0  0  0  0  0  0  0
   -1.4007   -2.2164   -2.4478 C   0  0  0  0  0  0  0  0  0  0  0  0
   -1.3001   -2.6472    0.0606 C   0  0  0  0  0  0  0  0  0  0  0  0
   -2.7716   -2.4611    0.0837 N   0  3  0  0  0  0  0  0  0  0  0  0
   -3.5470   -3.5282    0.0209 C   0  0  0  0  0  0  0  0  0  0  0  0
   -5.2010   -3.1078   -0.0086 S   0  0  0  0  0  0  0  0  0  0  0  0
   -4.8343   -1.4260    0.0401 C   0  0  0  0  0  0  0  0  0  0  0  0
   -3.4630   -1.2478    0.1904 C   0  0  0  0  0  0  0  0  0  0  0  0
   -2.7417    0.0421    0.3546 C   0  0  0  0  0  0  0  0  0  0  0  0
   -5.9554   -0.4183   -0.1195 C   0  0  0  0  0  0  0  0  0  0  0  0
   -6.1661   -0.1084   -1.6070 C   0  0  0  0  0  0  0  0  0  0  0  0
   -7.2230    0.8210   -1.8507 O   0  0  0  0  0  0  0  0  0  0  0  0
   -7.3691    1.1677   -3.5393 P   0  0  1  0  0  0  0  0  0  0  0  0
   -8.5548    2.0598   -3.1798 O   0  0  0  0  0  0  0  0  0  0  0  0
   -6.0246    2.0864   -3.4368 O   0  0  0  0  0  0  0  0  0  0  0  0
   -7.5152    1.5144   -5.2279 O   0  0  0  0  0  0  0  0  0  0  0  0
   -8.4132    2.9777   -5.4405 P   0  0  0  0  0  0  0  0  0  0  0  0
   -7.2224    3.6909   -6.0786 O   0  0  0  0  0  0  0  0  0  0  0  0
   -9.2871    2.3093   -6.6420 O   0  0  0  0  0  0  0  0  0  0  0  0
   -9.3111    4.4410   -5.6532 O   0  0  0  0  0  0  0  0  0  0  0  0
    0.6064   -0.8480   -5.4305 H   0  0  0  0  0  0  0  0  0  0  0  0
    1.3349   -2.4581   -5.6462 H   0  0  0  0  0  0  0  0  0  0  0  0
    2.1718   -1.2074   -4.6915 H   0  0  0  0  0  0  0  0  0  0  0  0
    2.3537   -3.6088   -1.0249 H   0  0  0  0  0  0  0  0  0  0  0  0
    1.5654   -2.9788    0.2896 H   0  0  0  0  0  0  0  0  0  0  0  0
   -2.4791   -2.0994   -2.4696 H   0  0  0  0  0  0  0  0  0  0  0  0
   -0.8328   -1.8894    0.6981 H   0  0  0  0  0  0  0  0  0  0  0  0
   -1.0749   -3.6194    0.5178 H   0  0  0  0  0  0  0  0  0  0  0  0
   -3.1968   -4.5544   -0.0285 H   0  0  0  0  0  0  0  0  0  0  0  0
   -3.3573    0.7545    0.9142 H   0  0  0  0  0  0  0  0  0  0  0  0
   -2.5172    0.4887   -0.6193 H   0  0  0  0  0  0  0  0  0  0  0  0
   -1.8104   -0.0577    0.9183 H   0  0  0  0  0  0  0  0  0  0  0  0
   -5.7284    0.5036    0.4296 H   0  0  0  0  0  0  0  0  0  0  0  0
   -6.8880   -0.7981    0.3170 H   0  0  0  0  0  0  0  0  0  0  0  0
   -6.3930   -1.0285   -2.1568 H   0  0  0  0  0  0  0  0  0  0  0  0
   -5.2312    0.2963   -2.0115 H   0  0  0  0  0  0  0  0  0  0  0  0
   -6.2405    3.0112   -3.2091 H   0  0  0  0  0  0  0  0  0  0  0  0
  -10.1716    2.0383   -6.3409 H   0  0  0  0  0  0  0  0  0  0  0  0
   -8.7653    4.9201   -6.3129 H   0  0  0  0  0  0  0  0  0  0  0  0
  1  2  2  0  0  0  0
  1  8  1  0  0  0  0
  2  3  1  0  0  0  0
  2  4  1  0  0  0  0
  3 27  1  0  0  0  0
  3 28  1  0  0  0  0
  3 29  1  0  0  0  0
  4  5  2  0  0  0  0
  5  6  1  0  0  0  0
  5  7  1  0  0  0  0
  6 30  1  0  0  0  0
  6 31  1  0  0  0  0
  7  8  2  0  0  0  0
  7  9  1  0  0  0  0
  8 32  1  0  0  0  0
  9 10  1  0  0  0  0
  9 33  1  0  0  0  0
  9 34  1  0  0  0  0
 10 11  2  0  0  0  0
 10 14  1  0  0  0  0
 11 12  1  0  0  0  0
 11 35  1  0  0  0  0
 12 13  1  0  0  0  0
 13 14  2  0  0  0  0
 13 16  1  0  0  0  0
 14 15  1  0  0  0  0
 15 36  1  0  0  0  0
 15 37  1  0  0  0  0
 15 38  1  0  0  0  0
 16 17  1  0  0  0  0
 16 39  1  0  0  0  0
 16 40  1  0  0  0  0
 17 18  1  0  0  0  0
 17 41  1  0  0  0  0
 17 42  1  0  0  0  0
 18 19  1  0  0  0  0
 19 20  2  1  0  0  0
 19 21  1  0  0  0  0
 19 22  1  0  0  0  0
 21 43  1  0  0  0  0
 22 23  1  0  0  0  0
 23 24  2  0  0  0  0
 23 25  1  0  0  0  0
 23 26  1  0  0  0  0
 25 44  1  0  0  0  0
 26 45  1  0  0  0  0
M  CHG  1  10   1
M  END
$$$$
