REMARK  2 active torsions:
REMARK  status: ('A' for Active; 'I' for Inactive)
REMARK    1  A    between atoms: C_1  and  C_3 
REMARK    2  A    between atoms: C_3  and  C_5 
ROOT
ATOM      1  C   UNL d   1       5.493   1.888  -3.524  0.00  0.00     0.218 C 
ATOM      2  O   UNL d   1       4.469   1.782  -2.558  0.00  0.00    -0.218 OA
ENDROOT
BRANCH   1   3
ATOM      3  C   UNL d   1       5.405   3.232  -4.239  0.00  0.00     0.218 C 
ATOM      4  O   UNL d   1       4.259   3.268  -5.060  0.00  0.00    -0.218 OA
ENDBRANCH   1   3
BRANCH   1   5
ATOM      5  C   UNL d   1       6.862   1.754  -2.865  0.00  0.00     0.218 C 
ATOM      6  O   UNL d   1       6.964   0.510  -2.210  0.00  0.00    -0.218 OA
ENDBRANCH   1   5
TORSDOF 2
