@<TRIPOS>MOLECULE
3DW4_GOL_A_1
 6 5 0 0 0
SMALL
GASTEIGER
****
Coordinates from PDB:3DW4:A:1 Model:1 without hydrogens
@<TRIPOS>ATOM
      1 C           5.4050    3.2320   -4.2390 C.3     1  UNL1        0.2175
      2 O           4.2590    3.2680   -5.0600 O.3     1  UNL1       -0.2175
      3 C           5.4930    1.8880   -3.5240 C.3     1  UNL1        0.2175
      4 O           4.4690    1.7820   -2.5580 O.3     1  UNL1       -0.2175
      5 C           6.8620    1.7540   -2.8650 C.3     1  UNL1        0.2175
      6 O           6.9640    0.5100   -2.2100 O.3     1  UNL1       -0.2175
@<TRIPOS>BOND
     1     1     2    1
     2     1     3    1
     3     3     4    1
     4     3     5    1
     5     5     6    1
