REMARK  12 active torsions:
REMARK  status: ('A' for Active; 'I' for Inactive)
REMARK    1  A    between atoms: C_1  and  O_19 
REMARK    2  A    between atoms: C_2  and  C_9 
REMARK    3  A    between atoms: C_4  and  O_7 
REMARK    4  A    between atoms: C_9  and  N_10 
REMARK    5  A    between atoms: N_10  and  C_11 
REMARK    6  A    between atoms: C_11  and  C_12 
REMARK    7  A    between atoms: C_12  and  C_13 
REMARK    8  A    between atoms: C_13  and  C_14 
REMARK    9  A    between atoms: C_14  and  N_15 
REMARK       I    between atoms: N_15  and  C_16 
REMARK       I    between atoms: C_16  and  N_17 
REMARK       I    between atoms: C_16  and  N_18 
REMARK   10  A    between atoms: O_19  and  C_20 
REMARK   11  A    between atoms: C_20  and  C_21 
REMARK   12  A    between atoms: C_21  and  N_22 
REMARK       I    between atoms: N_22  and  C_23 
REMARK       I    between atoms: C_23  and  N_25 
ROOT
ATOM      1  C   UNL d   1      -0.599  -1.246  -0.103  0.00  0.00     0.077 A 
ATOM      2  C   UNL d   1      -1.381  -0.074  -0.145  0.00  0.00     0.006 A 
ATOM      3  C   UNL d   1      -0.732   1.186  -0.101  0.00  0.00     0.048 A 
ATOM      4  C   UNL d   1       0.654   1.295  -0.024  0.00  0.00     0.069 A 
ATOM      5  C   UNL d   1       1.413   0.136   0.007  0.00  0.00     0.039 A 
ATOM      6  C   UNL d   1       0.798  -1.115  -0.030  0.00  0.00     0.040 A 
ENDROOT
BRANCH   2   7
ATOM      7  C   UNL d   1      -2.894  -0.064  -0.241  0.00  0.00     0.311 C 
BRANCH   7   8
ATOM      8  N   UNL d   1      -3.590  -0.066   1.048  0.00  0.00     0.087 N 
ATOM      9  H   UNL d   1      -3.312  -0.906   1.548  0.00  0.00     0.316 HD
BRANCH   8  10
ATOM     10  C   UNL d   1      -3.376   1.131   1.858  0.00  0.00     0.270 C 
BRANCH  10  11
ATOM     11  C   UNL d   1      -4.102   1.037   3.208  0.00  0.00     0.031 C 
BRANCH  11  12
ATOM     12  C   UNL d   1      -3.730  -0.193   4.049  0.00  0.00     0.021 C 
BRANCH  12  13
ATOM     13  C   UNL d   1      -2.226  -0.294   4.303  0.00  0.00     0.122 C 
BRANCH  13  14
ATOM     14  N   UNL d   1      -1.897  -1.488   5.045  0.00  0.00    -0.366 N 
ATOM     15  C   UNL d   1      -1.984  -1.643   6.378  0.00  0.00     0.165 C 
ATOM     16  N   UNL d   1      -2.272  -0.772   7.270  0.00  0.00    -0.274 NA
ATOM     17  N   UNL d   1      -1.692  -2.903   6.751  0.00  0.00    -0.273 NA
ATOM     18  H   UNL d   1      -2.456   0.125   6.825  0.00  0.00     0.189 HD
ATOM     19  H   UNL d   1      -0.868  -3.264   6.292  0.00  0.00     0.127 HD
ATOM     20  H   UNL d   1      -1.576  -2.928   7.761  0.00  0.00     0.127 HD
ATOM     21  H   UNL d   1      -2.006  -2.348   4.524  0.00  0.00     0.162 HD
ENDBRANCH  13  14
ENDBRANCH  12  13
ENDBRANCH  11  12
ENDBRANCH  10  11
ENDBRANCH   8  10
ENDBRANCH   7   8
ENDBRANCH   2   7
BRANCH   1  22
ATOM     22  O   UNL d   1      -1.237  -2.473  -0.142  0.00  0.00    -0.349 OA
BRANCH  22  23
ATOM     23  C   UNL d   1      -0.343  -3.606  -0.151  0.00  0.00     0.195 C 
BRANCH  23  24
ATOM     24  C   UNL d   1      -1.071  -4.953  -0.213  0.00  0.00     0.149 C 
BRANCH  24  25
ATOM     25  N   UNL d   1      -1.803  -5.191   1.018  0.00  0.00    -0.364 N 
ATOM     26  C   UNL d   1      -2.092  -6.408   1.524  0.00  0.00     0.165 C 
ATOM     27  N   UNL d   1      -1.638  -7.557   1.189  0.00  0.00    -0.274 NA
ATOM     28  N   UNL d   1      -2.960  -6.319   2.547  0.00  0.00    -0.273 NA
ATOM     29  H   UNL d   1      -0.985  -7.471   0.412  0.00  0.00     0.189 HD
ATOM     30  H   UNL d   1      -2.730  -5.585   3.204  0.00  0.00     0.127 HD
ATOM     31  H   UNL d   1      -3.014  -7.216   3.021  0.00  0.00     0.127 HD
ATOM     32  H   UNL d   1      -2.562  -4.526   1.145  0.00  0.00     0.162 HD
ENDBRANCH  24  25
ENDBRANCH  23  24
ENDBRANCH  22  23
ENDBRANCH   1  22
BRANCH   4  33
ATOM     33  O   UNL d   1       1.378   2.450   0.018  0.00  0.00    -0.356 OA
ATOM     34  C   UNL d   1       0.649   3.670  -0.001  0.00  0.00     0.210 C 
ENDBRANCH   4  33
TORSDOF 12
