@<TRIPOS>MOLECULE
ligand.pdb
 54 54 0 0 0
SMALL
GASTEIGER

@<TRIPOS>ATOM
      1 C          -0.5994   -1.2460   -0.1031 C.ar    1  UNL1        0.1253
      2 C          -1.3807   -0.0741   -0.1453 C.ar    1  UNL1        0.0115
      3 C          -0.7317    1.1857   -0.1005 C.ar    1  UNL1       -0.0121
      4 C           0.6544    1.2949   -0.0236 C.ar    1  UNL1        0.1206
      5 C           1.4132    0.1357    0.0068 C.ar    1  UNL1       -0.0165
      6 C           0.7981   -1.1148   -0.0303 C.ar    1  UNL1       -0.0162
      7 O           1.3779    2.4504    0.0184 O.3     1  UNL1       -0.4951
      8 C           0.6490    3.6696   -0.0013 C.3     1  UNL1        0.0788
      9 C          -2.8940   -0.0640   -0.2410 C.3     1  UNL1        0.0248
     10 N          -3.5899   -0.0661    1.0482 N.3     1  UNL1       -0.3119
     11 C          -3.3762    1.1309    1.8582 C.3     1  UNL1       -0.0037
     12 C          -4.1024    1.0367    3.2079 C.3     1  UNL1       -0.0376
     13 C          -3.7304   -0.1929    4.0488 C.3     1  UNL1       -0.0211
     14 C          -2.2263   -0.2942    4.3025 C.3     1  UNL1        0.0647
     15 N          -1.8970   -1.4876    5.0447 N.pl3   1  UNL1       -0.2761
     16 C          -1.9842   -1.6430    6.3782 C.cat   1  UNL1        0.3762
     17 N          -2.2717   -0.7718    7.2699 N.pl3   1  UNL1       -0.1298
     18 N          -1.6925   -2.9032    6.7506 N.pl3   1  UNL1       -0.2893
     19 O          -1.2367   -2.4729   -0.1424 O.3     1  UNL1       -0.4885
     20 C          -0.3434   -3.6058   -0.1508 C.3     1  UNL1        0.1199
     21 C          -1.0713   -4.9531   -0.2128 C.3     1  UNL1        0.0986
     22 N          -1.8032   -5.1907    1.0180 N.pl3   1  UNL1       -0.2728
     23 C          -2.0917   -6.4080    1.5240 C.cat   1  UNL1        0.3763
     24 N          -1.6378   -7.5566    1.1886 N.pl3   1  UNL1       -0.1298
     25 N          -2.9600   -6.3186    2.5475 N.pl3   1  UNL1       -0.2893
     26 H          -1.3518    2.0772   -0.1196 H       1  UNL1        0.0658
     27 H           2.4964    0.1989    0.0587 H       1  UNL1        0.0655
     28 H           1.4662   -1.9691   -0.0054 H       1  UNL1        0.0655
     29 H           1.3718    4.4864   -0.0819 H       1  UNL1        0.0660
     30 H           0.0911    3.8002    0.9316 H       1  UNL1        0.0660
     31 H          -0.0130    3.7296   -0.8711 H       1  UNL1        0.0660
     32 H          -3.2286   -0.9327   -0.8188 H       1  UNL1        0.0475
     33 H          -3.2202    0.8032   -0.8322 H       1  UNL1        0.0475
     34 H          -3.3120   -0.9061    1.5479 H       1  UNL1        0.1222
     35 H          -3.7382    2.0203    1.3282 H       1  UNL1        0.0424
     36 H          -2.3140    1.2953    2.0613 H       1  UNL1        0.0424
     37 H          -5.1868    1.0439    3.0425 H       1  UNL1        0.0278
     38 H          -3.8731    1.9409    3.7878 H       1  UNL1        0.0278
     39 H          -4.0908   -1.1045    3.5565 H       1  UNL1        0.0296
     40 H          -4.2693   -0.1407    5.0028 H       1  UNL1        0.0296
     41 H          -1.8604    0.6021    4.8162 H       1  UNL1        0.0655
     42 H          -1.6808   -0.3562    3.3576 H       1  UNL1        0.0655
     43 H          -2.0060   -2.3484    4.5236 H       1  UNL1        0.2579
     44 H          -2.4557    0.1246    6.8246 H       1  UNL1        0.3062
     45 H          -0.8679   -3.2641    6.2924 H       1  UNL1        0.2546
     46 H          -1.5762   -2.9275    7.7611 H       1  UNL1        0.2546
     47 H           0.2628   -3.5973    0.7643 H       1  UNL1        0.0728
     48 H           0.2992   -3.5479   -1.0363 H       1  UNL1        0.0728
     49 H          -0.3010   -5.7211   -0.3504 H       1  UNL1        0.0689
     50 H          -1.7551   -4.9945   -1.0655 H       1  UNL1        0.0689
     51 H          -2.5616   -4.5264    1.1445 H       1  UNL1        0.2580
     52 H          -0.9848   -7.4709    0.4124 H       1  UNL1        0.3062
     53 H          -2.7302   -5.5852    3.2043 H       1  UNL1        0.2546
     54 H          -3.0139   -7.2165    3.0213 H       1  UNL1        0.2546
@<TRIPOS>BOND
     1     1     2   ar
     2     1     6   ar
     3     1    19    1
     4     2     3   ar
     5     2     9    1
     6     3     4   ar
     7     3    26    1
     8     4     5   ar
     9     4     7    1
    10     5     6   ar
    11     5    27    1
    12     6    28    1
    13     7     8    1
    14     8    29    1
    15     8    30    1
    16     8    31    1
    17     9    10    1
    18     9    32    1
    19     9    33    1
    20    10    11    1
    21    10    34    1
    22    11    12    1
    23    11    35    1
    24    11    36    1
    25    12    13    1
    26    12    37    1
    27    12    38    1
    28    13    14    1
    29    13    39    1
    30    13    40    1
    31    14    15    1
    32    14    41    1
    33    14    42    1
    34    15    16    1
    35    15    43    1
    36    16    17    2
    37    16    18    1
    38    17    44    1
    39    18    45    1
    40    18    46    1
    41    19    20    1
    42    20    21    1
    43    20    47    1
    44    20    48    1
    45    21    22    1
    46    21    49    1
    47    21    50    1
    48    22    23    1
    49    22    51    1
    50    23    24    2
    51    23    25    1
    52    24    52    1
    53    25    53    1
    54    25    54    1
