5BXK_S81_B_301
 OpenBabel10091713583D
Coordinates from PDB:5BXK:B:301 Model:1 without hydrogens
 47 48  0  0  1  0  0  0  0  0999 V2000
   17.1850   -8.8770   25.7330 C   0  0  1  0  0  0  0  0  0  0  0  0
   19.1100   -7.9750   27.0480 C   0  0  1  0  0  0  0  0  0  0  0  0
   18.5330   -6.4840   27.4130 C   0  0  1  0  0  0  0  0  0  0  0  0
   19.7980   -5.5410   27.7380 C   0  0  2  0  0  0  0  0  0  0  0  0
   15.6270   -8.9690   26.0620 C   0  0  1  0  0  0  0  0  0  0  0  0
   15.2520  -10.4170   26.5660 C   0  0  2  0  0  0  0  0  0  0  0  0
   15.5760  -11.4620   25.3890 C   0  0  1  0  0  0  0  0  0  0  0  0
   17.1630  -11.4610   25.0630 C   0  0  1  0  0  0  0  0  0  0  0  0
   17.5720  -12.4540   23.9400 C   0  0  0  0  0  0  0  0  0  0  0  0
   20.5330   -6.1450   29.0330 C   0  0  1  0  0  0  0  0  0  0  0  0
   21.0720   -7.6130   28.6420 C   0  0  0  0  0  0  0  0  0  0  0  0
   19.8630   -8.5700   28.2620 C   0  0  2  0  0  0  0  0  0  0  0  0
   15.2340  -12.8360   25.7720 F   0  0  0  0  0  0  0  0  0  0  0  0
   15.3600   -7.8800   27.1120 N   0  0  0  0  0  0  0  0  0  0  0  0
   18.9210  -12.3410   23.5210 N   0  0  0  0  0  0  0  0  0  0  0  0
   21.7320   -5.3200   29.3840 N   0  0  0  0  0  0  0  0  0  0  0  0
   20.3390   -9.8990   27.8900 N   0  0  0  0  0  0  0  0  0  0  0  0
   18.0820   -8.8990   26.7710 O   0  0  0  0  0  0  0  0  0  0  0  0
   17.8250   -5.9520   26.2080 O   0  0  0  0  0  0  0  0  0  0  0  0
   19.3180   -4.2770   28.0500 O   0  0  0  0  0  0  0  0  0  0  0  0
   14.0960  -10.4290   26.7870 O   0  0  0  0  0  0  0  0  0  0  0  0
   17.5470   -9.9810   24.6880 O   0  0  0  0  0  0  0  0  0  0  0  0
   17.3016   -7.8817   25.3579 H   0  0  0  0  0  0  0  0  0  0  0  0
   19.7375   -7.8370   26.1924 H   0  0  0  0  0  0  0  0  0  0  0  0
   17.8634   -6.5162   28.2470 H   0  0  0  0  0  0  0  0  0  0  0  0
   20.4721   -5.4906   26.9086 H   0  0  0  0  0  0  0  0  0  0  0  0
   15.0149   -8.8058   25.1997 H   0  0  0  0  0  0  0  0  0  0  0  0
   15.8041  -10.6782   27.4445 H   0  0  0  0  0  0  0  0  0  0  0  0
   14.9949  -11.1571   24.5438 H   0  0  0  0  0  0  0  0  0  0  0  0
   17.6986  -11.8016   25.9244 H   0  0  0  0  0  0  0  0  0  0  0  0
   17.4158  -13.4493   24.3003 H   0  0  0  0  0  0  0  0  0  0  0  0
   16.9674  -12.2185   23.0892 H   0  0  0  0  0  0  0  0  0  0  0  0
   19.8484   -6.1614   29.8552 H   0  0  0  0  0  0  0  0  0  0  0  0
   21.7337   -7.5331   27.8049 H   0  0  0  0  0  0  0  0  0  0  0  0
   21.5876   -8.0264   29.4835 H   0  0  0  0  0  0  0  0  0  0  0  0
   19.2224   -8.6518   29.1151 H   0  0  0  0  0  0  0  0  0  0  0  0
   15.9477   -8.0444   27.9293 H   0  0  0  0  0  0  0  0  0  0  0  0
   14.3784   -7.9072   27.3880 H   0  0  0  0  0  0  0  0  0  0  0  0
   19.5392  -12.5576   24.3029 H   0  0  0  0  0  0  0  0  0  0  0  0
   19.0989  -11.3891   23.2005 H   0  0  0  0  0  0  0  0  0  0  0  0
   22.3796   -5.3090   28.5961 H   0  0  0  0  0  0  0  0  0  0  0  0
   22.1949   -5.7224   30.1990 H   0  0  0  0  0  0  0  0  0  0  0  0
   20.9504   -9.8259   27.0768 H   0  0  0  0  0  0  0  0  0  0  0  0
   19.5424  -10.4945   27.6640 H   0  0  0  0  0  0  0  0  0  0  0  0
   18.4389   -5.9263   25.4574 H   0  0  0  0  0  0  0  0  0  0  0  0
   18.7092   -4.3390   28.8026 H   0  0  0  0  0  0  0  0  0  0  0  0
   13.6104  -10.1905   25.9819 H   0  0  0  0  0  0  0  0  0  0  0  0
  1  5  1  0  0  0  0
  1 18  1  0  0  0  0
  1 23  1  6  0  0  0
  2  3  1  0  0  0  0
  2 12  1  0  0  0  0
  2 24  1  6  0  0  0
  3  4  1  0  0  0  0
  3 25  1  1  0  0  0
  4 20  1  0  0  0  0
  4 10  1  0  0  0  0
  4 26  1  6  0  0  0
  5  6  1  0  0  0  0
  5 14  1  0  0  0  0
  5 27  1  6  0  0  0
  6 21  1  0  0  0  0
  6 28  1  1  0  0  0
  7 13  1  0  0  0  0
  7  6  1  0  0  0  0
  7 29  1  6  0  0  0
  8  7  1  0  0  0  0
  8 30  1  1  0  0  0
  9  8  1  0  0  0  0
  9 31  1  0  0  0  0
  9 32  1  0  0  0  0
 10 16  1  0  0  0  0
 10 33  1  1  0  0  0
 11 10  1  0  0  0  0
 11 34  1  0  0  0  0
 11 35  1  0  0  0  0
 12 11  1  0  0  0  0
 12 36  1  1  0  0  0
 14 37  1  0  0  0  0
 14 38  1  0  0  0  0
 15  9  1  0  0  0  0
 15 39  1  0  0  0  0
 15 40  1  0  0  0  0
 16 41  1  0  0  0  0
 16 42  1  0  0  0  0
 17 12  1  0  0  0  0
 17 43  1  0  0  0  0
 17 44  1  0  0  0  0
 18  2  1  0  0  0  0
 19  3  1  0  0  0  0
 19 45  1  0  0  0  0
 20 46  1  0  0  0  0
 21 47  1  0  0  0  0
 22  8  1  0  0  0  0
 22  1  1  0  0  0  0
M  END
$$$$
