@<TRIPOS>MOLECULE
5BXK_S81_B_301
 22 23 0 0 0
SMALL
GASTEIGER
****
Coordinates from PDB:5BXK:B:301 Model:1 without hydrogens
@<TRIPOS>ATOM
      1 C          17.1850   -8.8770   25.7330 C.3     1  UNL1        0.2561
      2 C          19.1100   -7.9750   27.0480 C.3     1  UNL1        0.1681
      3 C          18.5330   -6.4840   27.4130 C.3     1  UNL1        0.2119
      4 C          19.7980   -5.5410   27.7380 C.3     1  UNL1        0.2020
      5 C          15.6270   -8.9690   26.0620 C.3     1  UNL1        0.1809
      6 C          15.2520  -10.4170   26.5660 C.3     1  UNL1        0.2092
      7 C          15.5760  -11.4620   25.3890 C.3     1  UNL1        0.2211
      8 C          17.1630  -11.4610   25.0630 C.3     1  UNL1        0.1717
      9 C          17.5720  -12.4540   23.9400 C.3     1  UNL1        0.1417
     10 C          20.5330   -6.1450   29.0330 C.3     1  UNL1        0.1262
     11 C          21.0720   -7.6130   28.6420 C.3     1  UNL1        0.0433
     12 C          19.8630   -8.5700   28.2620 C.3     1  UNL1        0.1231
     13 F          15.2340  -12.8360   25.7720 F       1  UNL1       -0.2318
     14 N          15.3600   -7.8800   27.1120 N.3     1  UNL1       -0.1248
     15 N          18.9210  -12.3410   23.5210 N.3     1  UNL1       -0.1286
     16 N          21.7320   -5.3200   29.3840 N.3     1  UNL1       -0.1301
     17 N          20.3390   -9.8990   27.8900 N.3     1  UNL1       -0.1302
     18 O          18.0820   -8.8990   26.7710 O.3     1  UNL1       -0.3277
     19 O          17.8250   -5.9520   26.2080 O.3     1  UNL1       -0.2177
     20 O          19.3180   -4.2770   28.0500 O.3     1  UNL1       -0.2188
     21 O          14.0960  -10.4290   26.7870 O.3     1  UNL1       -0.2184
     22 O          17.5470   -9.9810   24.6880 O.3     1  UNL1       -0.3274
@<TRIPOS>BOND
     1     1     5    1
     2     1    18    1
     3     2    18    1
     4     2     3    1
     5     2    12    1
     6     3    19    1
     7     3     4    1
     8     4    20    1
     9     4    10    1
    10     5     6    1
    11     5    14    1
    12     6    21    1
    13     7    13    1
    14     7     6    1
    15     8     9    1
    16     8     7    1
    17    10    16    1
    18    11    10    1
    19    12    17    1
    20    12    11    1
    21    15     9    1
    22    22     8    1
    23    22     1    1
