5BXK_S81_B_301
 OpenBabel10091713583D
Coordinates from PDB:5BXK:B:301 Model:1 without hydrogens
 22 23  0  0  0  0  0  0  0  0999 V2000
   17.1850   -8.8770   25.7330 C   0  0  1  0  0  0  0  0  0  0  0  0
   19.1100   -7.9750   27.0480 C   0  0  1  0  0  0  0  0  0  0  0  0
   18.5330   -6.4840   27.4130 C   0  0  1  0  0  0  0  0  0  0  0  0
   19.7980   -5.5410   27.7380 C   0  0  2  0  0  0  0  0  0  0  0  0
   15.6270   -8.9690   26.0620 C   0  0  1  0  0  0  0  0  0  0  0  0
   15.2520  -10.4170   26.5660 C   0  0  2  0  0  0  0  0  0  0  0  0
   15.5760  -11.4620   25.3890 C   0  0  1  0  0  0  0  0  0  0  0  0
   17.1630  -11.4610   25.0630 C   0  0  1  0  0  0  0  0  0  0  0  0
   17.5720  -12.4540   23.9400 C   0  0  0  0  0  0  0  0  0  0  0  0
   20.5330   -6.1450   29.0330 C   0  0  1  0  0  0  0  0  0  0  0  0
   21.0720   -7.6130   28.6420 C   0  0  0  0  0  0  0  0  0  0  0  0
   19.8630   -8.5700   28.2620 C   0  0  2  0  0  0  0  0  0  0  0  0
   15.2340  -12.8360   25.7720 F   0  0  0  0  0  0  0  0  0  0  0  0
   15.3600   -7.8800   27.1120 N   0  0  0  0  0  0  0  0  0  0  0  0
   18.9210  -12.3410   23.5210 N   0  0  0  0  0  0  0  0  0  0  0  0
   21.7320   -5.3200   29.3840 N   0  0  0  0  0  0  0  0  0  0  0  0
   20.3390   -9.8990   27.8900 N   0  0  0  0  0  0  0  0  0  0  0  0
   18.0820   -8.8990   26.7710 O   0  0  0  0  0  0  0  0  0  0  0  0
   17.8250   -5.9520   26.2080 O   0  0  0  0  0  0  0  0  0  0  0  0
   19.3180   -4.2770   28.0500 O   0  0  0  0  0  0  0  0  0  0  0  0
   14.0960  -10.4290   26.7870 O   0  0  0  0  0  0  0  0  0  0  0  0
   17.5470   -9.9810   24.6880 O   0  0  0  0  0  0  0  0  0  0  0  0
  1  5  1  0  0  0  0
  1 18  1  1  0  0  0
  2 18  1  1  0  0  0
  2  3  1  0  0  0  0
  2 12  1  0  0  0  0
  3 19  1  6  0  0  0
  3  4  1  0  0  0  0
  4 20  1  1  0  0  0
  4 10  1  0  0  0  0
  5  6  1  0  0  0  0
  5 14  1  1  0  0  0
  6 21  1  6  0  0  0
  7 13  1  1  0  0  0
  7  6  1  0  0  0  0
  8  9  1  6  0  0  0
  8  7  1  0  0  0  0
 10 16  1  6  0  0  0
 11 10  1  0  0  0  0
 12 17  1  6  0  0  0
 12 11  1  0  0  0  0
 15  9  1  0  0  0  0
 22  8  1  0  0  0  0
 22  1  1  0  0  0  0
A    1
C1
A    2
C10
A    3
C11
A    4
C12
A    5
C2
A    6
C3
A    7
C4
A    8
C5
A    9
C6
A   10
C7
A   11
C8
A   12
C9
A   13
F99
A   14
N2
A   15
N6
A   16
N7
A   17
N9
A   18
O1
A   19
O11
A   20
O12
A   21
O23
A   22
O5
M  END
>  <InstanceId>
5BXK_S81_B_301

>  <ChemCompId>
S81

>  <PdbId>
5BXK

>  <ChainId>
B

>  <ResidueNumber>
301

>  <InsertionCode>


>  <Model>
1

>  <AltIds>


>  <MissingHeavyAtoms>
0

>  <ObservedFormula>
C12 N4 O5 F

>  <Name>
(1R,2R,3S,4R,6S)-4,6-diamino-2,3-dihydroxycyclohexyl 2,6-diamino-2,4,6-trideoxy-4-fluoro-alpha-D-glucopyranoside

>  <SystematicName>
(1S,2R,3R,4S,6R)-3-[(2S,3R,4R,5S,6R)-6-(aminomethyl)-3-azanyl-5-fluoranyl-4-oxidanyl-oxan-2-yl]oxy-4,6-bis(azanyl)cyclohexane-1,2-diol

>  <Synonyms>


>  <Type>
NON-POLYMER

>  <Formula>
C12 H25 F N4 O5

>  <MolecularWeight>
324.349

>  <ModifiedDate>
2016-06-17

>  <Parent>


>  <OneLetterCode>


>  <SubcomponentList>


>  <AmbiguousFlag>
N

>  <InChI>
InChI=1S/C12H25FN4O5/c13-6-5(2-14)21-12(7(17)9(6)19)22-11-4(16)1-3(15)8(18)10(11)20/h3-12,18-20H,1-2,14-17H2/t3-,4+,5-,6-,7-,8+,9+,10-,11-,12-/m1/s1

>  <InChIKey>
CRXNRBKQEXVRGM-ITWNYXCASA-N

>  <SMILES>
C1[C@H]([C@@H]([C@H]([C@@H]([C@H]1N)O[C@@H]2[C@@H]([C@H]([C@@H]([C@H](O2)CN)F)O)N)O)O)N

$$$$
