@<TRIPOS>MOLECULE
2FCY_NMY_A_1001
 88 91 0 0 0
SMALL
GASTEIGER

@<TRIPOS>ATOM
      1 C          -1.9378   -9.7834    1.6727 C.3     1  UNL1        0.1776
      2 H          -2.0000   -9.0548    2.4817 H       1  UNL1        0.0927
      3 O          -1.4652  -11.0207    2.2521 O.3     1  UNL1       -0.3422
      4 C          -0.1054  -10.9659    2.7496 C.3     1  UNL1        0.1055
      5 H           0.5480  -10.5745    1.9599 H       1  UNL1        0.0639
      6 C          -0.0067  -10.0773    4.0200 C.3     1  UNL1        0.1166
      7 H          -0.4222   -9.0971    3.7698 H       1  UNL1        0.0650
      8 C          -0.8645  -10.7032    5.1520 C.3     1  UNL1        0.0990
      9 H          -0.8262  -10.0842    6.0509 H       1  UNL1        0.0636
     10 C          -0.3771  -12.1252    5.5175 C.3     1  UNL1        0.0351
     11 H          -1.0939  -12.5587    6.2262 H       1  UNL1        0.0485
     12 N           0.9400  -12.1599    6.1765 N.3     1  UNL1       -0.3250
     13 C          -0.3712  -13.0246    4.2708 C.3     1  UNL1       -0.0175
     14 C           0.3528  -12.4303    3.0423 C.3     1  UNL1        0.0355
     15 H           0.0685  -13.0559    2.1869 H       1  UNL1        0.0485
     16 N           1.8176  -12.5472    3.1627 N.3     1  UNL1       -0.3250
     17 O          -2.2558  -10.7243    4.8018 O.3     1  UNL1       -0.3876
     18 O           1.3747   -9.8828    4.4007 O.3     1  UNL1       -0.3402
     19 C           1.5027   -8.9089    5.4376 C.3     1  UNL1        0.1884
     20 H           0.9246   -9.2283    6.3085 H       1  UNL1        0.0938
     21 C           2.9420   -8.6994    5.9060 C.3     1  UNL1        0.1345
     22 H           3.6153   -8.6025    5.0488 H       1  UNL1        0.0671
     23 C           2.7744   -7.3824    6.6690 C.3     1  UNL1        0.1205
     24 H           3.7322   -6.8722    6.8117 H       1  UNL1        0.0651
     25 C           1.7723   -6.6360    5.7670 C.3     1  UNL1        0.1135
     26 H           1.0090   -6.0860    6.3125 H       1  UNL1        0.0647
     27 O           1.0366   -7.6281    5.0101 O.3     1  UNL1       -0.3405
     28 C           2.4560   -5.6805    4.7922 C.3     1  UNL1        0.0730
     29 O           3.4632   -6.3472    4.0363 O.3     1  UNL1       -0.3924
     30 O           2.2231   -7.6905    7.9776 O.3     1  UNL1       -0.3410
     31 C           2.2209   -6.5625    8.8716 C.3     1  UNL1        0.1776
     32 H           3.2414   -6.1607    8.8924 H       1  UNL1        0.0927
     33 C           1.8184   -6.9953   10.3187 C.3     1  UNL1        0.0853
     34 H           2.5650   -7.7097   10.6842 H       1  UNL1        0.0535
     35 C           1.8103   -5.7351   11.2272 C.3     1  UNL1        0.1033
     36 H           1.3879   -6.0145   12.2004 H       1  UNL1        0.0637
     37 C           0.9639   -4.5915   10.6341 C.3     1  UNL1        0.1100
     38 H           1.1142   -3.6700   11.2095 H       1  UNL1        0.0646
     39 C           1.3672   -4.3380    9.1676 C.3     1  UNL1        0.1022
     40 H           2.3890   -3.9460    9.1287 H       1  UNL1        0.0636
     41 O           1.3258   -5.5552    8.4131 O.3     1  UNL1       -0.3425
     42 C           0.4300   -3.3102    8.4941 C.3     1  UNL1        0.0222
     43 N           0.8486   -2.9759    7.1165 N.3     1  UNL1       -0.3276
     44 O          -0.4308   -4.9148   10.7100 O.3     1  UNL1       -0.3866
     45 O           3.1383   -5.2823   11.5172 O.3     1  UNL1       -0.3874
     46 N           0.5065   -7.6887   10.3519 N.3     1  UNL1       -0.3211
     47 O           3.4353   -9.7528    6.7348 O.3     1  UNL1       -0.3841
     48 C          -3.3871   -9.9759    1.1214 C.3     1  UNL1        0.0853
     49 H          -4.0362  -10.2069    1.9755 H       1  UNL1        0.0535
     50 N          -3.5108  -11.1253    0.1853 N.3     1  UNL1       -0.3211
     51 C          -3.8595   -8.6625    0.4541 C.3     1  UNL1        0.1033
     52 H          -4.7857   -8.8740   -0.0946 H       1  UNL1        0.0637
     53 O          -4.2410   -7.6890    1.4306 O.3     1  UNL1       -0.3874
     54 C          -2.8231   -8.1123   -0.5435 C.3     1  UNL1        0.1100
     55 H          -3.0964   -7.1033   -0.8714 H       1  UNL1        0.0646
     56 O          -2.8156   -8.9430   -1.7225 O.3     1  UNL1       -0.3866
     57 C          -1.3892   -8.0982    0.0247 C.3     1  UNL1        0.1022
     58 H          -0.7078   -8.0593   -0.8356 H       1  UNL1        0.0636
     59 O          -1.0361   -9.3246    0.6733 O.3     1  UNL1       -0.3425
     60 C          -1.0316   -6.8433    0.8619 C.3     1  UNL1        0.0222
     61 N          -1.8865   -6.5655    2.0254 N.3     1  UNL1       -0.3276
     62 H           0.9090  -11.6091    7.0349 H       1  UNL1        0.1185
     63 H           1.6353  -11.6929    5.5794 H       1  UNL1        0.1185
     64 H          -1.4139  -13.2258    3.9908 H       1  UNL1        0.0297
     65 H           0.0463  -14.0095    4.5226 H       1  UNL1        0.0297
     66 H           2.0499  -13.2492    3.8695 H       1  UNL1        0.1185
     67 H           2.2061  -11.6666    3.5095 H       1  UNL1        0.1185
     68 H          -2.3368  -11.1664    3.9314 H       1  UNL1        0.2100
     69 H           1.7216   -5.2673    4.0946 H       1  UNL1        0.0584
     70 H           2.9393   -4.8625    5.3370 H       1  UNL1        0.0584
     71 H           3.5578   -5.8700    3.1939 H       1  UNL1        0.2095
     72 H           0.4084   -2.3871    9.0854 H       1  UNL1        0.0448
     73 H          -0.5918   -3.7042    8.4428 H       1  UNL1        0.0448
     74 H           1.7643   -2.5471    7.1279 H       1  UNL1        0.1183
     75 H           0.1984   -2.2689    6.7555 H       1  UNL1        0.1183
     76 H          -0.6485   -5.1129   11.6385 H       1  UNL1        0.2100
     77 H           3.6087   -5.0455   10.7020 H       1  UNL1        0.2100
     78 H          -0.1779   -7.0871    9.8777 H       1  UNL1        0.1187
     79 H           0.1789   -7.7847   11.3110 H       1  UNL1        0.1187
     80 H           3.0151   -9.6272    7.6070 H       1  UNL1        0.2101
     81 H          -2.9104  -10.9320   -0.6230 H       1  UNL1        0.1187
     82 H          -4.4663  -11.1739   -0.1678 H       1  UNL1        0.1187
     83 H          -3.4219   -7.2792    1.7925 H       1  UNL1        0.2100
     84 H          -3.7064   -8.9103   -2.1126 H       1  UNL1        0.2100
     85 H           0.0044   -6.9206    1.2119 H       1  UNL1        0.0448
     86 H          -1.0823   -5.9694    0.2012 H       1  UNL1        0.0448
     87 H          -1.3529   -6.8059    2.8720 H       1  UNL1        0.1183
     88 H          -1.9967   -5.5488    2.1096 H       1  UNL1        0.1183
@<TRIPOS>BOND
     1     1    48    1
     2     1    59    1
     3     1     3    1
     4     1     2    1
     5     3     4    1
     6     4     5    1
     7     4     6    1
     8     6     8    1
     9     6    18    1
    10     6     7    1
    11     8    10    1
    12     8    17    1
    13     8     9    1
    14    10    11    1
    15    10    12    1
    16    10    13    1
    17    12    62    1
    18    12    63    1
    19    13    14    1
    20    13    64    1
    21    13    65    1
    22    14    15    1
    23    14     4    1
    24    14    16    1
    25    16    66    1
    26    16    67    1
    27    17    68    1
    28    18    19    1
    29    19    20    1
    30    19    21    1
    31    19    27    1
    32    21    23    1
    33    21    47    1
    34    21    22    1
    35    23    24    1
    36    23    25    1
    37    23    30    1
    38    25    27    1
    39    25    28    1
    40    25    26    1
    41    28    29    1
    42    28    69    1
    43    28    70    1
    44    29    71    1
    45    31    41    1
    46    31    32    1
    47    31    30    1
    48    33    31    1
    49    33    46    1
    50    33    34    1
    51    35    33    1
    52    35    45    1
    53    35    36    1
    54    37    35    1
    55    37    38    1
    56    37    44    1
    57    39    37    1
    58    39    40    1
    59    39    41    1
    60    39    42    1
    61    42    43    1
    62    42    72    1
    63    42    73    1
    64    43    74    1
    65    43    75    1
    66    44    76    1
    67    45    77    1
    68    46    78    1
    69    46    79    1
    70    47    80    1
    71    48    51    1
    72    48    50    1
    73    48    49    1
    74    50    81    1
    75    50    82    1
    76    51    54    1
    77    51    53    1
    78    51    52    1
    79    53    83    1
    80    54    55    1
    81    54    56    1
    82    54    57    1
    83    56    84    1
    84    57    59    1
    85    57    60    1
    86    57    58    1
    87    60    61    1
    88    60    85    1
    89    60    86    1
    90    61    87    1
    91    61    88    1
