2FCY_NMY_A_1001
 OpenBabel03221817233D

 88 91  0  0  1  0  0  0  0  0999 V2000
   -1.9378   -9.7834    1.6727 C   0  0  2  0  0  0  0  0  0  0  0  0
   -2.0000   -9.0548    2.4817 H   0  0  0  0  0  0  0  0  0  0  0  0
   -1.4652  -11.0207    2.2521 O   0  0  0  0  0  0  0  0  0  0  0  0
   -0.1054  -10.9659    2.7496 C   0  0  1  0  0  0  0  0  0  0  0  0
    0.5480  -10.5745    1.9599 H   0  0  0  0  0  0  0  0  0  0  0  0
   -0.0067  -10.0773    4.0200 C   0  0  1  0  0  0  0  0  0  0  0  0
   -0.4222   -9.0971    3.7698 H   0  0  0  0  0  0  0  0  0  0  0  0
   -0.8645  -10.7032    5.1520 C   0  0  2  0  0  0  0  0  0  0  0  0
   -0.8262  -10.0842    6.0509 H   0  0  0  0  0  0  0  0  0  0  0  0
   -0.3771  -12.1252    5.5175 C   0  0  2  0  0  0  0  0  0  0  0  0
   -1.0939  -12.5587    6.2262 H   0  0  0  0  0  0  0  0  0  0  0  0
    0.9400  -12.1599    6.1765 N   0  0  0  0  0  0  0  0  0  0  0  0
   -0.3712  -13.0246    4.2708 C   0  0  0  0  0  0  0  0  0  0  0  0
    0.3528  -12.4303    3.0423 C   0  0  2  0  0  0  0  0  0  0  0  0
    0.0685  -13.0559    2.1869 H   0  0  0  0  0  0  0  0  0  0  0  0
    1.8176  -12.5472    3.1627 N   0  0  0  0  0  0  0  0  0  0  0  0
   -2.2558  -10.7243    4.8018 O   0  0  0  0  0  0  0  0  0  0  0  0
    1.3747   -9.8828    4.4007 O   0  0  0  0  0  0  0  0  0  0  0  0
    1.5027   -8.9089    5.4376 C   0  0  1  0  0  0  0  0  0  0  0  0
    0.9246   -9.2283    6.3085 H   0  0  0  0  0  0  0  0  0  0  0  0
    2.9420   -8.6994    5.9060 C   0  0  1  0  0  0  0  0  0  0  0  0
    3.6153   -8.6025    5.0488 H   0  0  0  0  0  0  0  0  0  0  0  0
    2.7744   -7.3824    6.6690 C   0  0  1  0  0  0  0  0  0  0  0  0
    3.7322   -6.8722    6.8117 H   0  0  0  0  0  0  0  0  0  0  0  0
    1.7723   -6.6360    5.7670 C   0  0  2  0  0  0  0  0  0  0  0  0
    1.0090   -6.0860    6.3125 H   0  0  0  0  0  0  0  0  0  0  0  0
    1.0366   -7.6281    5.0101 O   0  0  0  0  0  0  0  0  0  0  0  0
    2.4560   -5.6805    4.7922 C   0  0  0  0  0  0  0  0  0  0  0  0
    3.4632   -6.3472    4.0363 O   0  0  0  0  0  0  0  0  0  0  0  0
    2.2231   -7.6905    7.9776 O   0  0  0  0  0  0  0  0  0  0  0  0
    2.2209   -6.5625    8.8716 C   0  0  2  0  0  0  0  0  0  0  0  0
    3.2414   -6.1607    8.8924 H   0  0  0  0  0  0  0  0  0  0  0  0
    1.8184   -6.9953   10.3187 C   0  0  1  0  0  0  0  0  0  0  0  0
    2.5650   -7.7097   10.6842 H   0  0  0  0  0  0  0  0  0  0  0  0
    1.8103   -5.7351   11.2272 C   0  0  2  0  0  0  0  0  0  0  0  0
    1.3879   -6.0145   12.2004 H   0  0  0  0  0  0  0  0  0  0  0  0
    0.9639   -4.5915   10.6341 C   0  0  1  0  0  0  0  0  0  0  0  0
    1.1142   -3.6700   11.2095 H   0  0  0  0  0  0  0  0  0  0  0  0
    1.3672   -4.3380    9.1676 C   0  0  1  0  0  0  0  0  0  0  0  0
    2.3890   -3.9460    9.1287 H   0  0  0  0  0  0  0  0  0  0  0  0
    1.3258   -5.5552    8.4131 O   0  0  0  0  0  0  0  0  0  0  0  0
    0.4300   -3.3102    8.4941 C   0  0  0  0  0  0  0  0  0  0  0  0
    0.8486   -2.9759    7.1165 N   0  0  0  0  0  0  0  0  0  0  0  0
   -0.4308   -4.9148   10.7100 O   0  0  0  0  0  0  0  0  0  0  0  0
    3.1383   -5.2823   11.5172 O   0  0  0  0  0  0  0  0  0  0  0  0
    0.5065   -7.6887   10.3519 N   0  0  0  0  0  0  0  0  0  0  0  0
    3.4353   -9.7528    6.7348 O   0  0  0  0  0  0  0  0  0  0  0  0
   -3.3871   -9.9759    1.1214 C   0  0  2  0  0  0  0  0  0  0  0  0
   -4.0362  -10.2069    1.9755 H   0  0  0  0  0  0  0  0  0  0  0  0
   -3.5108  -11.1253    0.1853 N   0  0  0  0  0  0  0  0  0  0  0  0
   -3.8595   -8.6625    0.4541 C   0  0  1  0  0  0  0  0  0  0  0  0
   -4.7857   -8.8740   -0.0946 H   0  0  0  0  0  0  0  0  0  0  0  0
   -4.2410   -7.6890    1.4306 O   0  0  0  0  0  0  0  0  0  0  0  0
   -2.8231   -8.1123   -0.5435 C   0  0  2  0  0  0  0  0  0  0  0  0
   -3.0964   -7.1033   -0.8714 H   0  0  0  0  0  0  0  0  0  0  0  0
   -2.8156   -8.9430   -1.7225 O   0  0  0  0  0  0  0  0  0  0  0  0
   -1.3892   -8.0982    0.0247 C   0  0  2  0  0  0  0  0  0  0  0  0
   -0.7078   -8.0593   -0.8356 H   0  0  0  0  0  0  0  0  0  0  0  0
   -1.0361   -9.3246    0.6733 O   0  0  0  0  0  0  0  0  0  0  0  0
   -1.0316   -6.8433    0.8619 C   0  0  0  0  0  0  0  0  0  0  0  0
   -1.8865   -6.5655    2.0254 N   0  0  0  0  0  0  0  0  0  0  0  0
    0.9090  -11.6091    7.0349 H   0  0  0  0  0  0  0  0  0  0  0  0
    1.6353  -11.6929    5.5794 H   0  0  0  0  0  0  0  0  0  0  0  0
   -1.4139  -13.2258    3.9908 H   0  0  0  0  0  0  0  0  0  0  0  0
    0.0463  -14.0095    4.5226 H   0  0  0  0  0  0  0  0  0  0  0  0
    2.0499  -13.2492    3.8695 H   0  0  0  0  0  0  0  0  0  0  0  0
    2.2061  -11.6666    3.5095 H   0  0  0  0  0  0  0  0  0  0  0  0
   -2.3368  -11.1664    3.9314 H   0  0  0  0  0  0  0  0  0  0  0  0
    1.7216   -5.2673    4.0946 H   0  0  0  0  0  0  0  0  0  0  0  0
    2.9393   -4.8625    5.3370 H   0  0  0  0  0  0  0  0  0  0  0  0
    3.5578   -5.8700    3.1939 H   0  0  0  0  0  0  0  0  0  0  0  0
    0.4084   -2.3871    9.0854 H   0  0  0  0  0  0  0  0  0  0  0  0
   -0.5918   -3.7042    8.4428 H   0  0  0  0  0  0  0  0  0  0  0  0
    1.7643   -2.5471    7.1279 H   0  0  0  0  0  0  0  0  0  0  0  0
    0.1984   -2.2689    6.7555 H   0  0  0  0  0  0  0  0  0  0  0  0
   -0.6485   -5.1129   11.6385 H   0  0  0  0  0  0  0  0  0  0  0  0
    3.6087   -5.0455   10.7020 H   0  0  0  0  0  0  0  0  0  0  0  0
   -0.1779   -7.0871    9.8777 H   0  0  0  0  0  0  0  0  0  0  0  0
    0.1789   -7.7847   11.3110 H   0  0  0  0  0  0  0  0  0  0  0  0
    3.0151   -9.6272    7.6070 H   0  0  0  0  0  0  0  0  0  0  0  0
   -2.9104  -10.9320   -0.6230 H   0  0  0  0  0  0  0  0  0  0  0  0
   -4.4663  -11.1739   -0.1678 H   0  0  0  0  0  0  0  0  0  0  0  0
   -3.4219   -7.2792    1.7925 H   0  0  0  0  0  0  0  0  0  0  0  0
   -3.7064   -8.9103   -2.1126 H   0  0  0  0  0  0  0  0  0  0  0  0
    0.0044   -6.9206    1.2119 H   0  0  0  0  0  0  0  0  0  0  0  0
   -1.0823   -5.9694    0.2012 H   0  0  0  0  0  0  0  0  0  0  0  0
   -1.3529   -6.8059    2.8720 H   0  0  0  0  0  0  0  0  0  0  0  0
   -1.9967   -5.5488    2.1096 H   0  0  0  0  0  0  0  0  0  0  0  0
  1 48  1  6  0  0  0
  1 59  1  0  0  0  0
  1  3  1  0  0  0  0
  1  2  1  0  0  0  0
  3  4  1  0  0  0  0
  4  5  1  0  0  0  0
  4  6  1  1  0  0  0
  6  8  1  1  0  0  0
  6 18  1  0  0  0  0
  6  7  1  0  0  0  0
  8 10  1  1  0  0  0
  8 17  1  0  0  0  0
  8  9  1  0  0  0  0
 10 11  1  1  0  0  0
 10 12  1  0  0  0  0
 10 13  1  0  0  0  0
 12 62  1  0  0  0  0
 12 63  1  0  0  0  0
 13 14  1  0  0  0  0
 13 64  1  0  0  0  0
 13 65  1  0  0  0  0
 14 15  1  0  0  0  0
 14  4  1  6  0  0  0
 14 16  1  0  0  0  0
 16 66  1  0  0  0  0
 16 67  1  0  0  0  0
 17 68  1  0  0  0  0
 18 19  1  0  0  0  0
 19 20  1  0  0  0  0
 19 21  1  1  0  0  0
 19 27  1  0  0  0  0
 21 23  1  1  0  0  0
 21 47  1  0  0  0  0
 21 22  1  0  0  0  0
 23 24  1  0  0  0  0
 23 25  1  6  0  0  0
 23 30  1  0  0  0  0
 25 27  1  0  0  0  0
 25 28  1  0  0  0  0
 25 26  1  1  0  0  0
 28 29  1  0  0  0  0
 28 69  1  0  0  0  0
 28 70  1  0  0  0  0
 29 71  1  0  0  0  0
 31 41  1  0  0  0  0
 31 32  1  1  0  0  0
 31 30  1  0  0  0  0
 33 31  1  6  0  0  0
 33 46  1  0  0  0  0
 33 34  1  0  0  0  0
 35 33  1  6  0  0  0
 35 45  1  0  0  0  0
 35 36  1  0  0  0  0
 37 35  1  1  0  0  0
 37 38  1  0  0  0  0
 37 44  1  0  0  0  0
 39 37  1  1  0  0  0
 39 40  1  0  0  0  0
 39 41  1  0  0  0  0
 39 42  1  0  0  0  0
 42 43  1  0  0  0  0
 42 72  1  0  0  0  0
 42 73  1  0  0  0  0
 43 74  1  0  0  0  0
 43 75  1  0  0  0  0
 44 76  1  0  0  0  0
 45 77  1  0  0  0  0
 46 78  1  0  0  0  0
 46 79  1  0  0  0  0
 47 80  1  0  0  0  0
 48 51  1  6  0  0  0
 48 50  1  0  0  0  0
 48 49  1  0  0  0  0
 50 81  1  0  0  0  0
 50 82  1  0  0  0  0
 51 54  1  6  0  0  0
 51 53  1  0  0  0  0
 51 52  1  0  0  0  0
 53 83  1  0  0  0  0
 54 55  1  0  0  0  0
 54 56  1  0  0  0  0
 54 57  1  1  0  0  0
 56 84  1  0  0  0  0
 57 59  1  0  0  0  0
 57 60  1  0  0  0  0
 57 58  1  6  0  0  0
 60 61  1  0  0  0  0
 60 85  1  0  0  0  0
 60 86  1  0  0  0  0
 61 87  1  0  0  0  0
 61 88  1  0  0  0  0
M  END
$$$$
