REMARK  22 active torsions:
REMARK  status: ('A' for Active; 'I' for Inactive)
REMARK    1  A    between atoms: C_1  and  O_2 
REMARK    2  A    between atoms: O_2  and  C_3 
REMARK    3  A    between atoms: C_4  and  O_12 
REMARK    4  A    between atoms: C_5  and  O_11 
REMARK    5  A    between atoms: C_6  and  N_7 
REMARK    6  A    between atoms: C_9  and  N_10 
REMARK    7  A    between atoms: O_12  and  C_13 
REMARK    8  A    between atoms: C_14  and  O_32 
REMARK    9  A    between atoms: C_15  and  O_20 
REMARK   10  A    between atoms: C_16  and  C_18 
REMARK   11  A    between atoms: C_18  and  O_19 
REMARK   12  A    between atoms: C_21  and  O_20 
REMARK   13  A    between atoms: C_22  and  N_31 
REMARK   14  A    between atoms: C_23  and  O_30 
REMARK   15  A    between atoms: C_24  and  O_29 
REMARK   16  A    between atoms: C_25  and  C_27 
REMARK   17  A    between atoms: C_27  and  N_28 
REMARK   18  A    between atoms: C_33  and  N_34 
REMARK   19  A    between atoms: C_35  and  O_36 
REMARK   20  A    between atoms: C_37  and  O_38 
REMARK   21  A    between atoms: C_39  and  C_41 
REMARK   22  A    between atoms: C_41  and  N_42 
ROOT
ATOM      1  C   UNL d   1      -0.105 -10.966   2.750  0.00  0.00     0.189 C 
ATOM      2  C   UNL d   1      -0.007 -10.077   4.020  0.00  0.00     0.186 C 
ATOM      3  C   UNL d   1      -0.865 -10.703   5.152  0.00  0.00     0.182 C 
ATOM      4  C   UNL d   1      -0.377 -12.125   5.518  0.00  0.00     0.251 C 
ATOM      5  C   UNL d   1      -0.371 -13.025   4.271  0.00  0.00     0.076 C 
ATOM      6  C   UNL d   1       0.353 -12.430   3.042  0.00  0.00     0.251 C 
ENDROOT
BRANCH   2   7
ATOM      7  O   UNL d   1       1.375  -9.883   4.401  0.00  0.00    -0.348 OA
BRANCH   7   8
ATOM      8  C   UNL d   1       1.503  -8.909   5.438  0.00  0.00     0.292 C 
ATOM      9  C   UNL d   1       2.942  -8.699   5.906  0.00  0.00     0.205 C 
ATOM     10  C   UNL d   1       2.774  -7.382   6.669  0.00  0.00     0.189 C 
ATOM     11  C   UNL d   1       1.772  -6.636   5.767  0.00  0.00     0.180 C 
ATOM     12  O   UNL d   1       1.037  -7.628   5.010  0.00  0.00    -0.348 OA
BRANCH   9  13
ATOM     13  O   UNL d   1       3.435  -9.753   6.735  0.00  0.00    -0.388 OA
ATOM     14  H   UNL d   1       3.015  -9.627   7.607  0.00  0.00     0.210 HD
ENDBRANCH   9  13
BRANCH  10  15
ATOM     15  O   UNL d   1       2.223  -7.691   7.978  0.00  0.00    -0.348 OA
BRANCH  15  16
ATOM     16  C   UNL d   1       2.221  -6.562   8.872  0.00  0.00     0.296 C 
ATOM     17  O   UNL d   1       1.326  -5.555   8.413  0.00  0.00    -0.349 OA
ATOM     18  C   UNL d   1       1.367  -4.338   9.168  0.00  0.00     0.183 C 
ATOM     19  C   UNL d   1       0.964  -4.591  10.634  0.00  0.00     0.179 C 
ATOM     20  C   UNL d   1       1.810  -5.735  11.227  0.00  0.00     0.187 C 
ATOM     21  C   UNL d   1       1.818  -6.995  10.319  0.00  0.00     0.303 C 
BRANCH  18  22
ATOM     22  C   UNL d   1       0.430  -3.310   8.494  0.00  0.00     0.301 C 
BRANCH  22  23
ATOM     23  N   UNL d   1       0.849  -2.976   7.117  0.00  0.00     0.080 N 
ATOM     24  H   UNL d   1       1.764  -2.547   7.128  0.00  0.00     0.312 HD
ATOM     25  H   UNL d   1       0.198  -2.269   6.755  0.00  0.00     0.312 HD
ENDBRANCH  22  23
ENDBRANCH  18  22
BRANCH  19  26
ATOM     26  O   UNL d   1      -0.431  -4.915  10.710  0.00  0.00    -0.390 OA
ATOM     27  H   UNL d   1      -0.648  -5.113  11.639  0.00  0.00     0.210 HD
ENDBRANCH  19  26
BRANCH  20  28
ATOM     28  O   UNL d   1       3.138  -5.282  11.517  0.00  0.00    -0.391 OA
ATOM     29  H   UNL d   1       3.609  -5.045  10.702  0.00  0.00     0.210 HD
ENDBRANCH  20  28
BRANCH  21  30
ATOM     30  N   UNL d   1       0.506  -7.689  10.352  0.00  0.00     0.090 N 
ATOM     31  H   UNL d   1      -0.178  -7.087   9.878  0.00  0.00     0.313 HD
ATOM     32  H   UNL d   1       0.179  -7.785  11.311  0.00  0.00     0.313 HD
ENDBRANCH  21  30
ENDBRANCH  15  16
ENDBRANCH  10  15
BRANCH  11  33
ATOM     33  C   UNL d   1       2.456  -5.681   4.792  0.00  0.00     0.198 C 
BRANCH  33  34
ATOM     34  O   UNL d   1       3.463  -6.347   4.036  0.00  0.00    -0.398 OA
ATOM     35  H   UNL d   1       3.558  -5.870   3.194  0.00  0.00     0.209 HD
ENDBRANCH  33  34
ENDBRANCH  11  33
ENDBRANCH   7   8
ENDBRANCH   2   7
BRANCH   1  36
ATOM     36  O   UNL d   1      -1.465 -11.021   2.252  0.00  0.00    -0.349 OA
BRANCH  36  37
ATOM     37  C   UNL d   1      -1.938  -9.783   1.673  0.00  0.00     0.296 C 
ATOM     38  C   UNL d   1      -3.387  -9.976   1.121  0.00  0.00     0.303 C 
ATOM     39  C   UNL d   1      -3.860  -8.662   0.454  0.00  0.00     0.187 C 
ATOM     40  C   UNL d   1      -2.823  -8.112  -0.543  0.00  0.00     0.179 C 
ATOM     41  C   UNL d   1      -1.389  -8.098   0.025  0.00  0.00     0.183 C 
ATOM     42  O   UNL d   1      -1.036  -9.325   0.673  0.00  0.00    -0.349 OA
BRANCH  38  43
ATOM     43  N   UNL d   1      -3.511 -11.125   0.185  0.00  0.00     0.090 N 
ATOM     44  H   UNL d   1      -2.910 -10.932  -0.623  0.00  0.00     0.313 HD
ATOM     45  H   UNL d   1      -4.466 -11.174  -0.168  0.00  0.00     0.313 HD
ENDBRANCH  38  43
BRANCH  39  46
ATOM     46  O   UNL d   1      -4.241  -7.689   1.431  0.00  0.00    -0.391 OA
ATOM     47  H   UNL d   1      -3.422  -7.279   1.792  0.00  0.00     0.210 HD
ENDBRANCH  39  46
BRANCH  40  48
ATOM     48  O   UNL d   1      -2.816  -8.943  -1.722  0.00  0.00    -0.390 OA
ATOM     49  H   UNL d   1      -3.706  -8.910  -2.113  0.00  0.00     0.210 HD
ENDBRANCH  40  48
BRANCH  41  50
ATOM     50  C   UNL d   1      -1.032  -6.843   0.862  0.00  0.00     0.301 C 
BRANCH  50  51
ATOM     51  N   UNL d   1      -1.887  -6.566   2.025  0.00  0.00     0.080 N 
ATOM     52  H   UNL d   1      -1.353  -6.806   2.872  0.00  0.00     0.312 HD
ATOM     53  H   UNL d   1      -1.997  -5.549   2.110  0.00  0.00     0.312 HD
ENDBRANCH  50  51
ENDBRANCH  41  50
ENDBRANCH  36  37
ENDBRANCH   1  36
BRANCH   3  54
ATOM     54  O   UNL d   1      -2.256 -10.724   4.802  0.00  0.00    -0.391 OA
ATOM     55  H   UNL d   1      -2.337 -11.166   3.931  0.00  0.00     0.210 HD
ENDBRANCH   3  54
BRANCH   6  56
ATOM     56  N   UNL d   1       1.818 -12.547   3.163  0.00  0.00     0.085 N 
ATOM     57  H   UNL d   1       2.050 -13.249   3.869  0.00  0.00     0.313 HD
ATOM     58  H   UNL d   1       2.206 -11.667   3.510  0.00  0.00     0.313 HD
ENDBRANCH   6  56
BRANCH   4  59
ATOM     59  N   UNL d   1       0.940 -12.160   6.176  0.00  0.00     0.085 N 
ATOM     60  H   UNL d   1       0.909 -11.609   7.035  0.00  0.00     0.313 HD
ATOM     61  H   UNL d   1       1.635 -11.693   5.579  0.00  0.00     0.313 HD
ENDBRANCH   4  59
TORSDOF 22
