4P95_MES_A_601
 OpenBabel03221817313D

 25 25  0  0  0  0  0  0  0  0999 V2000
   -1.4031    0.0078    0.0461 O   0  0  0  0  0  0  0  0  0  0  0  0
   -0.6930   -1.1775   -0.3404 C   0  0  0  0  0  0  0  0  0  0  0  0
    0.6668   -1.2494    0.3608 C   0  0  0  0  0  0  0  0  0  0  0  0
    1.4714   -0.0089    0.0407 N   0  3  0  0  0  0  0  0  0  0  0  0
    1.6509   -0.0863   -0.9972 H   0  0  0  0  0  0  0  0  0  0  0  0
    0.6908    1.2558    0.2961 C   0  0  0  0  0  0  0  0  0  0  0  0
   -0.6880    1.1798   -0.3686 C   0  0  0  0  0  0  0  0  0  0  0  0
    2.8687    0.0304    0.6392 C   0  0  0  0  0  0  0  0  0  0  0  0
    3.7642   -1.1008    0.1728 C   0  0  0  0  0  0  0  0  0  0  0  0
    3.9961   -0.9900   -1.5705 S   0  0  0  0  0  0  0  0  0  0  0  0
    2.6062   -0.9269   -2.0413 O   0  0  0  0  0  0  0  0  0  0  0  0
    4.7253    0.2626   -1.7012 O   0  0  0  0  0  0  0  0  0  0  0  0
    4.7154   -2.2131   -1.8843 O   0  5  0  0  0  0  0  0  0  0  0  0
   -0.5839   -1.1974   -1.4315 H   0  0  0  0  0  0  0  0  0  0  0  0
   -1.3014   -2.0397   -0.0511 H   0  0  0  0  0  0  0  0  0  0  0  0
    1.2201   -2.1250    0.0127 H   0  0  0  0  0  0  0  0  0  0  0  0
    0.5548   -1.2771    1.4489 H   0  0  0  0  0  0  0  0  0  0  0  0
    1.2692    2.0985   -0.0944 H   0  0  0  0  0  0  0  0  0  0  0  0
    0.5903    1.3419    1.3836 H   0  0  0  0  0  0  0  0  0  0  0  0
   -0.6061    1.1884   -1.4615 H   0  0  0  0  0  0  0  0  0  0  0  0
   -1.2850    2.0488   -0.0734 H   0  0  0  0  0  0  0  0  0  0  0  0
    2.7410   -0.0001    1.7267 H   0  0  0  0  0  0  0  0  0  0  0  0
    3.2945    1.0044    0.3727 H   0  0  0  0  0  0  0  0  0  0  0  0
    3.3490   -2.0834    0.4113 H   0  0  0  0  0  0  0  0  0  0  0  0
    4.7489   -1.0308    0.6461 H   0  0  0  0  0  0  0  0  0  0  0  0
  1  2  1  0  0  0  0
  1  7  1  0  0  0  0
  2  3  1  0  0  0  0
  2 14  1  0  0  0  0
  2 15  1  0  0  0  0
  3  4  1  0  0  0  0
  3 16  1  0  0  0  0
  3 17  1  0  0  0  0
  4  5  1  0  0  0  0
  4  6  1  0  0  0  0
  4  8  1  0  0  0  0
  6  7  1  0  0  0  0
  6 18  1  0  0  0  0
  6 19  1  0  0  0  0
  7 20  1  0  0  0  0
  7 21  1  0  0  0  0
  8  9  1  0  0  0  0
  8 22  1  0  0  0  0
  8 23  1  0  0  0  0
  9 10  1  0  0  0  0
  9 24  1  0  0  0  0
  9 25  1  0  0  0  0
 10 11  2  0  0  0  0
 10 12  2  0  0  0  0
 10 13  1  0  0  0  0
M  CHG  2   4   1  13  -1
M  END
$$$$
