@<TRIPOS>MOLECULE
4P95_MES_A_601
 25 25 0 0 0
SMALL
GASTEIGER

@<TRIPOS>ATOM
      1 O          -1.4031    0.0078    0.0461 O.3     1  UNL1       -0.3693
      2 C          -0.6930   -1.1775   -0.3404 C.3     1  UNL1        0.0878
      3 C           0.6668   -1.2494    0.3608 C.3     1  UNL1       -0.0078
      4 N           1.4714   -0.0089    0.0407 N.4     1  UNL1        0.2396
      5 H           1.6509   -0.0863   -0.9972 H       1  UNL1        0.2036
      6 C           0.6908    1.2558    0.2961 C.3     1  UNL1       -0.0078
      7 C          -0.6880    1.1798   -0.3686 C.3     1  UNL1        0.0878
      8 C           2.8687    0.0304    0.6392 C.3     1  UNL1       -0.0129
      9 C           3.7642   -1.1008    0.1728 C.3     1  UNL1        0.0945
     10 S           3.9961   -0.9900   -1.5705 S.3     1  UNL1       -0.0756
     11 O           2.6062   -0.9269   -2.0413 O.2     1  UNL1       -0.1851
     12 O           4.7253    0.2626   -1.7012 O.2     1  UNL1       -0.1851
     13 O           4.7154   -2.2131   -1.8843 O.co2   1  UNL1       -0.7244
     14 H          -0.5839   -1.1974   -1.4315 H       1  UNL1        0.0613
     15 H          -1.3014   -2.0397   -0.0511 H       1  UNL1        0.0613
     16 H           1.2201   -2.1250    0.0127 H       1  UNL1        0.0837
     17 H           0.5548   -1.2771    1.4489 H       1  UNL1        0.0837
     18 H           1.2692    2.0985   -0.0944 H       1  UNL1        0.0837
     19 H           0.5903    1.3419    1.3836 H       1  UNL1        0.0837
     20 H          -0.6061    1.1884   -1.4615 H       1  UNL1        0.0613
     21 H          -1.2850    2.0488   -0.0734 H       1  UNL1        0.0613
     22 H           2.7410   -0.0001    1.7267 H       1  UNL1        0.0830
     23 H           3.2945    1.0044    0.3727 H       1  UNL1        0.0830
     24 H           3.3490   -2.0834    0.4113 H       1  UNL1        0.0543
     25 H           4.7489   -1.0308    0.6461 H       1  UNL1        0.0543
@<TRIPOS>BOND
     1     1     2    1
     2     1     7    1
     3     2     3    1
     4     2    14    1
     5     2    15    1
     6     3     4    1
     7     3    16    1
     8     3    17    1
     9     4     5    1
    10     4     6    1
    11     4     8    1
    12     6     7    1
    13     6    18    1
    14     6    19    1
    15     7    20    1
    16     7    21    1
    17     8     9    1
    18     8    22    1
    19     8    23    1
    20     9    10    1
    21     9    24    1
    22     9    25    1
    23    10    11    2
    24    10    12    2
    25    10    13    1
