REMARK  7 active torsions:
REMARK  status: ('A' for Active; 'I' for Inactive)
REMARK    1  A    between atoms: N_2  and  C_3 
REMARK    2  A    between atoms: C_3  and  C_4 
REMARK    3  A    between atoms: C_4  and  C_5 
REMARK    4  A    between atoms: C_5  and  N_6 
REMARK    5  A    between atoms: C_10  and  N_11 
REMARK    6  A    between atoms: C_17  and  C_20 
REMARK    7  A    between atoms: C_20  and  N_21 
ROOT
ATOM      1  N   UNL d   1       2.663  -3.990  -3.139  0.00  0.00    -0.320 N 
ATOM      2  C   UNL d   1       1.364  -4.276  -3.567  0.00  0.00     0.075 A 
ATOM      3  C   UNL d   1       1.342  -5.673  -3.617  0.00  0.00     0.087 A 
ATOM      4  N   UNL d   1       2.541  -6.212  -3.269  0.00  0.00    -0.218 NA
ATOM      5  C   UNL d   1       3.301  -5.202  -2.944  0.00  0.00     0.180 A 
ATOM      6  C   UNL d   1       0.181  -6.362  -3.986  0.00  0.00     0.037 A 
ATOM      7  C   UNL d   1      -0.969  -5.633  -4.271  0.00  0.00     0.040 A 
ATOM      8  C   UNL d   1      -0.956  -4.242  -4.208  0.00  0.00     0.077 A 
ATOM      9  O   UNL d   1      -2.164  -3.652  -4.497  0.00  0.00    -0.350 OA
ATOM     10  C   UNL d   1      -2.270  -2.285  -4.090  0.00  0.00     0.182 C 
ATOM     11  C   UNL d   1      -1.094  -1.475  -4.617  0.00  0.00     0.043 C 
ATOM     12  C   UNL d   1       0.173  -2.006  -3.947  0.00  0.00     0.052 C 
ATOM     13  C   UNL d   1       0.216  -3.508  -3.903  0.00  0.00     0.005 A 
ENDROOT
BRANCH   1  14
ATOM     14  C   UNL d   1       3.197  -2.664  -2.853  0.00  0.00     0.133 C 
BRANCH  14  15
ATOM     15  C   UNL d   1       4.682  -2.451  -3.148  0.00  0.00     0.050 C 
BRANCH  15  16
ATOM     16  C   UNL d   1       5.169  -1.035  -2.826  0.00  0.00     0.273 C 
BRANCH  16  17
ATOM     17  N   UNL d   1       6.621  -0.891  -3.053  0.00  0.00     0.080 N 
ATOM     18  C   UNL d   1       7.426  -1.793  -2.222  0.00  0.00     0.309 C 
ATOM     19  C   UNL d   1       7.038   0.491  -2.812  0.00  0.00     0.309 C 
ENDBRANCH  16  17
ENDBRANCH  15  16
ENDBRANCH  14  15
ENDBRANCH   1  14
BRANCH   5  20
ATOM     20  N   UNL d   1       4.546  -5.359  -2.466  0.00  0.00    -0.272 NA
ATOM     21  H   UNL d   1       4.802  -6.335  -2.347  0.00  0.00     0.127 HD
ATOM     22  H   UNL d   1       4.831  -4.819  -1.661  0.00  0.00     0.127 HD
ENDBRANCH   5  20
BRANCH  11  23
ATOM     23  C   UNL d   1      -1.281   0.030  -4.362  0.00  0.00     0.278 C 
BRANCH  23  24
ATOM     24  N   UNL d   1      -0.167   0.870  -4.848  0.00  0.00     0.080 N 
ATOM     25  C   UNL d   1      -0.011   0.787  -6.304  0.00  0.00     0.309 C 
ATOM     26  C   UNL d   1      -0.381   2.265  -4.451  0.00  0.00     0.309 C 
ENDBRANCH  23  24
ENDBRANCH  11  23
TORSDOF 7
