@<TRIPOS>MOLECULE
3TZR_SS0_A_75
 53 55 0 0 0
SMALL
GASTEIGER

@<TRIPOS>ATOM
      1 C           7.4259   -1.7933   -2.2220 C.3     1  UNL1       -0.0130
      2 N           6.6209   -0.8913   -3.0526 N.3     1  UNL1       -0.3083
      3 C           5.1689   -1.0349   -2.8256 C.3     1  UNL1       -0.0001
      4 C           4.6821   -2.4508   -3.1476 C.3     1  UNL1       -0.0221
      5 C           3.1974   -2.6636   -2.8527 C.3     1  UNL1        0.0276
      6 N           2.6625   -3.9902   -3.1386 N.ar    1  UNL1       -0.3117
      7 C           1.3642   -4.2760   -3.5668 C.ar    1  UNL1        0.0767
      8 C           1.3419   -5.6730   -3.6170 C.ar    1  UNL1        0.0914
      9 N           2.5414   -6.2124   -3.2694 N.ar    1  UNL1       -0.2146
     10 C           3.3007   -5.2017   -2.9443 C.ar    1  UNL1        0.1940
     11 N           4.5461   -5.3592   -2.4655 N.pl3   1  UNL1       -0.3288
     12 C           0.1809   -6.3615   -3.9863 C.ar    1  UNL1       -0.0307
     13 C          -0.9693   -5.6332   -4.2709 C.ar    1  UNL1       -0.0175
     14 C          -0.9556   -4.2420   -4.2078 C.ar    1  UNL1        0.1258
     15 O          -2.1640   -3.6520   -4.4965 O.3     1  UNL1       -0.4913
     16 C          -2.2702   -2.2855   -4.0904 C.3     1  UNL1        0.0939
     17 C          -1.0937   -1.4752   -4.6169 C.3     1  UNL1        0.0101
     18 H          -1.0250   -1.6664   -5.6964 H       1  UNL1        0.0349
     19 C           0.1735   -2.0059   -3.9473 C.3     1  UNL1       -0.0151
     20 C           0.2159   -3.5083   -3.9030 C.ar    1  UNL1        0.0203
     21 C          -1.2814    0.0299   -4.3621 C.3     1  UNL1        0.0045
     22 N          -0.1673    0.8699   -4.8475 N.3     1  UNL1       -0.3080
     23 C          -0.0114    0.7871   -6.3036 C.3     1  UNL1       -0.0130
     24 C          -0.3814    2.2646   -4.4513 C.3     1  UNL1       -0.0130
     25 C           7.0384    0.4909   -2.8117 C.3     1  UNL1       -0.0130
     26 H           7.2781   -2.8409   -2.5017 H       1  UNL1        0.0391
     27 H           7.2024   -1.6804   -1.1551 H       1  UNL1        0.0391
     28 H           8.4958   -1.6095   -2.3723 H       1  UNL1        0.0391
     29 H           4.6307   -0.3308   -3.4737 H       1  UNL1        0.0427
     30 H           4.9145   -0.7791   -1.7885 H       1  UNL1        0.0427
     31 H           5.2553   -3.1278   -2.5242 H       1  UNL1        0.0295
     32 H           4.8953   -2.6975   -4.1944 H       1  UNL1        0.0295
     33 H           2.6543   -1.9355   -3.4503 H       1  UNL1        0.0493
     34 H           2.9721   -2.4641   -1.7981 H       1  UNL1        0.0493
     35 H           4.8016   -6.3347   -2.3468 H       1  UNL1        0.1451
     36 H           4.8309   -4.8185   -1.6607 H       1  UNL1        0.1451
     37 H           0.1834   -7.4456   -4.0241 H       1  UNL1        0.0641
     38 H          -1.8832   -6.1572   -4.5391 H       1  UNL1        0.0655
     39 H          -2.3572   -2.2376   -2.9973 H       1  UNL1        0.0700
     40 H          -3.2097   -1.9052   -4.5066 H       1  UNL1        0.0700
     41 H           0.2502   -1.6325   -2.9187 H       1  UNL1        0.0319
     42 H           1.0244   -1.6371   -4.5258 H       1  UNL1        0.0319
     43 H          -1.3813    0.1784   -3.2780 H       1  UNL1        0.0430
     44 H          -2.2277    0.3608   -4.8104 H       1  UNL1        0.0430
     45 H           0.4280   -0.1737   -6.5904 H       1  UNL1        0.0391
     46 H           0.6813    1.5531   -6.6717 H       1  UNL1        0.0391
     47 H          -0.9640    0.9106   -6.8308 H       1  UNL1        0.0391
     48 H          -0.4184    2.3520   -3.3599 H       1  UNL1        0.0391
     49 H          -1.3085    2.6752   -4.8668 H       1  UNL1        0.0391
     50 H           0.4535    2.8927   -4.7830 H       1  UNL1        0.0391
     51 H           8.1028    0.6131   -3.0432 H       1  UNL1        0.0391
     52 H           6.8751    0.7937   -1.7712 H       1  UNL1        0.0391
     53 H           6.4948    1.1800   -3.4664 H       1  UNL1        0.0391
@<TRIPOS>BOND
     1     1     2    1
     2     1    26    1
     3     1    27    1
     4     1    28    1
     5     2     3    1
     6     2    25    1
     7     3     4    1
     8     3    29    1
     9     3    30    1
    10     4     5    1
    11     4    31    1
    12     4    32    1
    13     5     6    1
    14     5    33    1
    15     5    34    1
    16     6     7   ar
    17     6    10   ar
    18     7     8   ar
    19     7    20   ar
    20     8     9   ar
    21     8    12   ar
    22     9    10   ar
    23    10    11    1
    24    11    35    1
    25    11    36    1
    26    12    13   ar
    27    12    37    1
    28    13    14   ar
    29    13    38    1
    30    14    15    1
    31    14    20   ar
    32    15    16    1
    33    16    17    1
    34    16    39    1
    35    16    40    1
    36    17    18    1
    37    17    19    1
    38    17    21    1
    39    19    20    1
    40    19    41    1
    41    19    42    1
    42    21    22    1
    43    21    43    1
    44    21    44    1
    45    22    23    1
    46    22    24    1
    47    23    45    1
    48    23    46    1
    49    23    47    1
    50    24    48    1
    51    24    49    1
    52    24    50    1
    53    25    51    1
    54    25    52    1
    55    25    53    1
