@<TRIPOS>MOLECULE
1J7T_PAR_A_45
 42 45 0 0 0
SMALL
GASTEIGER
****
Coordinates from PDB:1J7T:A:45 Model:1 without hydrogens
@<TRIPOS>ATOM
      1 C          16.3220   31.0190   65.8360 C.3     1  UNL1        0.2561
      2 O          15.6290   32.2620   65.9690 O.3     1  UNL1       -0.3278
      3 C          15.5730   29.9990   66.7270 C.3     1  UNL1        0.1807
      4 N          14.1150   30.1420   66.5950 N.3     1  UNL1       -0.1248
      5 C          15.9110   30.2070   68.1910 C.3     1  UNL1        0.2070
      6 O          15.2850   29.2450   69.0320 O.3     1  UNL1       -0.2186
      7 C          17.4210   30.1460   68.3410 C.3     1  UNL1        0.2133
      8 O          17.7810   30.1430   69.6930 O.3     1  UNL1       -0.2176
      9 C          18.0340   31.3470   67.6120 C.3     1  UNL1        0.1834
     10 O          17.7270   31.2030   66.2040 O.3     1  UNL1       -0.3264
     11 C          19.5280   31.4170   67.7900 C.3     1  UNL1        0.2142
     12 O          20.1370   31.9300   66.6400 O.3     1  UNL1       -0.2176
     13 C          14.4410   35.4870   63.4470 C.3     1  UNL1        0.1261
     14 N          14.3370   36.5460   62.4010 N.3     1  UNL1       -0.1301
     15 C          15.6890   35.7210   64.3560 C.3     1  UNL1        0.0433
     16 C          15.7250   34.6580   65.4960 C.3     1  UNL1        0.1230
     17 N          16.9100   34.8890   66.3590 N.3     1  UNL1       -0.1302
     18 C          15.7750   33.2170   64.8970 C.3     1  UNL1        0.1649
     19 C          14.6750   32.9230   63.8870 C.3     1  UNL1        0.1779
     20 O          15.0590   31.6660   63.2680 O.3     1  UNL1       -0.3258
     21 C          14.5070   34.0610   62.8040 C.3     1  UNL1        0.1989
     22 O          13.2780   33.8440   62.1000 O.3     1  UNL1       -0.2189
     23 C          14.0830   30.8840   62.5450 C.3     1  UNL1        0.2694
     24 C          14.7710   30.0410   61.4240 C.3     1  UNL1        0.2373
     25 O          14.8120   30.7080   60.1470 O.3     1  UNL1       -0.2150
     26 C          13.8640   28.8170   61.4530 C.3     1  UNL1        0.1827
     27 O          12.5830   29.0990   60.8040 O.3     1  UNL1       -0.3265
     28 C          13.6310   28.5890   62.9460 C.3     1  UNL1        0.1804
     29 O          13.4550   29.9230   63.4180 O.3     1  UNL1       -0.3257
     30 C          14.7790   27.8700   63.7010 C.3     1  UNL1        0.2141
     31 O          14.2730   27.2880   64.8920 O.3     1  UNL1       -0.2176
     32 C          11.7700   27.9440   60.4920 C.3     1  UNL1        0.2561
     33 C          10.9040   28.1230   59.2060 C.3     1  UNL1        0.1807
     34 N          10.1410   29.4090   59.2410 N.3     1  UNL1       -0.1248
     35 C           9.9280   26.8820   59.0340 C.3     1  UNL1        0.2070
     36 O          10.7080   25.7680   58.5330 O.3     1  UNL1       -0.2186
     37 C           9.1710   26.4540   60.3620 C.3     1  UNL1        0.2122
     38 O           8.2320   27.4830   60.6740 O.3     1  UNL1       -0.2177
     39 C          10.1820   26.2930   61.5440 C.3     1  UNL1        0.1696
     40 O          10.8800   27.5860   61.6560 O.3     1  UNL1       -0.3276
     41 C           9.5140   25.8930   62.9140 C.3     1  UNL1        0.1415
     42 N           8.7600   26.9830   63.5930 N.3     1  UNL1       -0.1286
@<TRIPOS>BOND
     1     1     2    1
     2     1     3    1
     3     1    10    1
     4     3     4    1
     5     3     5    1
     6     5     6    1
     7     5     7    1
     8     7     8    1
     9     7     9    1
    10     9    10    1
    11     9    11    1
    12    11    12    1
    13    13    14    1
    14    13    15    1
    15    13    21    1
    16    15    16    1
    17    16    17    1
    18    16    18    1
    19    18     2    1
    20    18    19    1
    21    19    20    1
    22    19    21    1
    23    21    22    1
    24    23    20    1
    25    23    24    1
    26    23    29    1
    27    24    25    1
    28    24    26    1
    29    26    27    1
    30    26    28    1
    31    28    29    1
    32    28    30    1
    33    30    31    1
    34    32    27    1
    35    32    33    1
    36    32    40    1
    37    33    34    1
    38    33    35    1
    39    35    36    1
    40    35    37    1
    41    37    38    1
    42    37    39    1
    43    39    40    1
    44    39    41    1
    45    41    42    1
