@<TRIPOS>MOLECULE
3F2Q_FMN_X_200
 52 54 0 0 0
SMALL
GASTEIGER

@<TRIPOS>ATOM
      1 N           5.8649   -2.3478   -4.6844 N.ar    1  UNL1       -0.1733
      2 C           6.1028   -1.6163   -5.8158 C.ar    1  UNL1        0.3505
      3 O           6.7941   -0.5999   -5.7850 O.2     1  UNL1       -0.2446
      4 N           5.5857   -2.0137   -7.0105 N.ar    1  UNL1       -0.2717
      5 H           5.8248   -1.4409   -7.8138 H       1  UNL1        0.1735
      6 C           4.8224   -3.1170   -7.2281 C.ar    1  UNL1        0.2817
      7 O           4.4249   -3.4554   -8.3380 O.2     1  UNL1       -0.2653
      8 C           4.5006   -3.8720   -5.9759 C.ar    1  UNL1        0.1712
      9 N           3.6643   -4.8594   -6.0330 N.ar    1  UNL1       -0.2368
     10 C           3.3340   -5.5239   -4.8428 C.ar    1  UNL1        0.0886
     11 C           2.3697   -6.5396   -4.9505 C.ar    1  UNL1       -0.0311
     12 C           1.9000   -7.2255   -3.8277 C.ar    1  UNL1       -0.0454
     13 C           0.8956   -8.3323   -3.9916 C.3     1  UNL1       -0.0394
     14 C           2.3814   -6.8383   -2.5713 C.ar    1  UNL1       -0.0455
     15 C           1.7417   -7.3043   -1.2919 C.3     1  UNL1       -0.0394
     16 C           3.4569   -5.9287   -2.4824 C.ar    1  UNL1       -0.0329
     17 C           3.9068   -5.1938   -3.5895 C.ar    1  UNL1        0.0694
     18 N           4.8686   -4.1425   -3.5036 N.ar    1  UNL1       -0.3195
     19 C           5.1301   -3.4171   -4.6765 C.ar    1  UNL1        0.1705
     20 C           5.0052   -3.4205   -2.1974 C.3     1  UNL1        0.0538
     21 C           6.4657   -3.2009   -1.7276 C.3     1  UNL1        0.1014
     22 H           7.1093   -2.9104   -2.5657 H       1  UNL1        0.0638
     23 O           7.0059   -4.4341   -1.2252 O.3     1  UNL1       -0.3874
     24 C           6.6080   -2.0739   -0.6497 C.3     1  UNL1        0.1106
     25 H           6.3287   -1.1314   -1.1363 H       1  UNL1        0.0646
     26 O           7.9870   -1.9412   -0.2560 O.3     1  UNL1       -0.3865
     27 C           5.7723   -2.1992    0.6503 C.3     1  UNL1        0.1073
     28 H           6.0896   -3.0749    1.2269 H       1  UNL1        0.0643
     29 O           4.3793   -2.3521    0.3548 O.3     1  UNL1       -0.3868
     30 C           5.9355   -0.9193    1.5065 C.3     1  UNL1        0.0875
     31 O           5.2217   -0.9878    2.7385 O.3     1  UNL1       -0.2841
     32 P           5.8425   -1.8658    3.9211 P.3     1  UNL1        0.4724
     33 O           7.3216   -2.0102    3.9595 O.2     1  UNL1       -0.2275
     34 O           5.1811   -1.2509    5.2342 O.3     1  UNL1       -0.3026
     35 O           5.0766   -3.2591    3.7847 O.3     1  UNL1       -0.3026
     36 H           1.9644   -6.7667   -5.9360 H       1  UNL1        0.0642
     37 H           0.8075   -8.6461   -5.0374 H       1  UNL1        0.0278
     38 H          -0.0926   -8.0189   -3.6435 H       1  UNL1        0.0278
     39 H           1.2173   -9.2145   -3.4256 H       1  UNL1        0.0278
     40 H           0.7180   -7.6547   -1.4570 H       1  UNL1        0.0278
     41 H           1.6516   -6.4518   -0.6070 H       1  UNL1        0.0278
     42 H           2.3236   -8.0947   -0.8152 H       1  UNL1        0.0278
     43 H           3.9073   -5.7983   -1.5021 H       1  UNL1        0.0641
     44 H           4.4854   -3.9466   -1.3998 H       1  UNL1        0.0519
     45 H           4.5056   -2.4510   -2.3095 H       1  UNL1        0.0519
     46 H           7.5850   -4.7916   -1.9231 H       1  UNL1        0.2100
     47 H           8.5022   -1.6550   -1.0284 H       1  UNL1        0.2100
     48 H           3.9318   -2.4665    1.2156 H       1  UNL1        0.2100
     49 H           5.5024   -0.0688    0.9675 H       1  UNL1        0.0592
     50 H           6.9832   -0.6802    1.7111 H       1  UNL1        0.0592
     51 H           4.2435   -1.0289    5.1008 H       1  UNL1        0.2220
     52 H           5.6234   -3.9699    4.1718 H       1  UNL1        0.2220
@<TRIPOS>BOND
     1     1     2   ar
     2     1    19   ar
     3     2     3    2
     4     2     4   ar
     5     4     5    1
     6     4     6   ar
     7     6     7    2
     8     6     8   ar
     9     8     9   ar
    10     8    19   ar
    11     9    10   ar
    12    10    11   ar
    13    10    17   ar
    14    11    12   ar
    15    11    36    1
    16    12    13    1
    17    12    14   ar
    18    13    37    1
    19    13    38    1
    20    13    39    1
    21    14    15    1
    22    14    16   ar
    23    15    40    1
    24    15    41    1
    25    15    42    1
    26    16    17   ar
    27    16    43    1
    28    17    18   ar
    29    18    19   ar
    30    18    20    1
    31    20    44    1
    32    20    45    1
    33    21    23    1
    34    21    22    1
    35    21    20    1
    36    23    46    1
    37    24    26    1
    38    24    25    1
    39    24    21    1
    40    26    47    1
    41    27    29    1
    42    27    30    1
    43    27    28    1
    44    27    24    1
    45    29    48    1
    46    30    31    1
    47    30    49    1
    48    30    50    1
    49    31    32    1
    50    32    33    2
    51    32    34    1
    52    32    35    1
    53    34    51    1
    54    35    52    1
