REMARK  12 active torsions:
REMARK  status: ('A' for Active; 'I' for Inactive)
REMARK    1  A    between atoms: N_18  and  C_20 
REMARK    2  A    between atoms: C_21  and  C_20 
REMARK    3  A    between atoms: C_21  and  O_22 
REMARK    4  A    between atoms: C_23  and  C_21 
REMARK    5  A    between atoms: C_23  and  O_24 
REMARK    6  A    between atoms: C_25  and  C_23 
REMARK    7  A    between atoms: C_25  and  O_26 
REMARK    8  A    between atoms: C_25  and  C_27 
REMARK    9  A    between atoms: C_27  and  O_28 
REMARK   10  A    between atoms: O_28  and  P_29 
REMARK   11  A    between atoms: P_29  and  O_31 
REMARK   12  A    between atoms: P_29  and  O_32 
ROOT
ATOM      1  N   UNL d   1       5.865  -2.348  -4.684  0.00  0.00    -0.173 NA
ATOM      2  C   UNL d   1       6.103  -1.616  -5.816  0.00  0.00     0.350 A 
ATOM      3  O   UNL d   1       6.794  -0.600  -5.785  0.00  0.00    -0.244 OA
ATOM      4  N   UNL d   1       5.586  -2.014  -7.011  0.00  0.00    -0.272 N 
ATOM      5  H   UNL d   1       5.825  -1.441  -7.814  0.00  0.00     0.174 HD
ATOM      6  C   UNL d   1       4.822  -3.117  -7.228  0.00  0.00     0.282 A 
ATOM      7  O   UNL d   1       4.425  -3.455  -8.338  0.00  0.00    -0.265 OA
ATOM      8  C   UNL d   1       4.501  -3.872  -5.976  0.00  0.00     0.171 A 
ATOM      9  N   UNL d   1       3.664  -4.859  -6.033  0.00  0.00    -0.237 NA
ATOM     10  C   UNL d   1       3.334  -5.524  -4.843  0.00  0.00     0.085 A 
ATOM     11  C   UNL d   1       2.370  -6.540  -4.950  0.00  0.00     0.041 C 
ATOM     12  C   UNL d   1       1.900  -7.226  -3.828  0.00  0.00    -0.054 C 
ATOM     13  C   UNL d   1       0.896  -8.332  -3.992  0.00  0.00     0.049 C 
ATOM     14  C   UNL d   1       2.381  -6.838  -2.571  0.00  0.00    -0.054 C 
ATOM     15  C   UNL d   1       1.742  -7.304  -1.292  0.00  0.00     0.049 C 
ATOM     16  C   UNL d   1       3.457  -5.929  -2.482  0.00  0.00     0.039 C 
ATOM     17  C   UNL d   1       3.907  -5.194  -3.590  0.00  0.00     0.065 A 
ATOM     18  N   UNL d   1       4.869  -4.143  -3.504  0.00  0.00    -0.325 N 
ATOM     19  C   UNL d   1       5.130  -3.417  -4.676  0.00  0.00     0.170 A 
ENDROOT
BRANCH  18  20
ATOM     20  C   UNL d   1       5.005  -3.421  -2.197  0.00  0.00     0.165 C 
BRANCH  20  21
ATOM     21  C   UNL d   1       6.466  -3.201  -1.728  0.00  0.00     0.167 C 
BRANCH  21  22
ATOM     22  O   UNL d   1       7.006  -4.434  -1.225  0.00  0.00    -0.391 OA
ATOM     23  H   UNL d   1       7.585  -4.792  -1.923  0.00  0.00     0.210 HD
ENDBRANCH  21  22
BRANCH  21  24
ATOM     24  C   UNL d   1       6.608  -2.074  -0.650  0.00  0.00     0.179 C 
BRANCH  24  25
ATOM     25  O   UNL d   1       7.987  -1.941  -0.256  0.00  0.00    -0.390 OA
ATOM     26  H   UNL d   1       8.502  -1.655  -1.028  0.00  0.00     0.210 HD
ENDBRANCH  24  25
BRANCH  24  27
ATOM     27  C   UNL d   1       5.772  -2.199   0.650  0.00  0.00     0.173 C 
BRANCH  27  28
ATOM     28  O   UNL d   1       4.379  -2.352   0.355  0.00  0.00    -0.391 OA
ATOM     29  H   UNL d   1       3.932  -2.466   1.216  0.00  0.00     0.210 HD
ENDBRANCH  27  28
BRANCH  27  30
ATOM     30  C   UNL d   1       5.936  -0.919   1.506  0.00  0.00     0.214 C 
BRANCH  30  31
ATOM     31  O   UNL d   1       5.222  -0.988   2.739  0.00  0.00    -0.294 OA
BRANCH  31  32
ATOM     32  P   UNL d   1       5.843  -1.866   3.921  0.00  0.00     0.390 P 
ATOM     33  O   UNL d   1       7.322  -2.010   3.959  0.00  0.00    -0.632 OA
BRANCH  32  34
ATOM     34  O   UNL d   1       5.181  -1.251   5.234  0.00  0.00    -0.307 OA
ATOM     35  H   UNL d   1       4.244  -1.029   5.101  0.00  0.00     0.222 HD
ENDBRANCH  32  34
BRANCH  32  36
ATOM     36  O   UNL d   1       5.077  -3.259   3.785  0.00  0.00    -0.307 OA
ATOM     37  H   UNL d   1       5.623  -3.970   4.172  0.00  0.00     0.222 HD
ENDBRANCH  32  36
ENDBRANCH  31  32
ENDBRANCH  30  31
ENDBRANCH  27  30
ENDBRANCH  24  27
ENDBRANCH  21  24
ENDBRANCH  20  21
ENDBRANCH  18  20
TORSDOF 12
