3F2Q_FMN_X_200
 OpenBabel03221817303D

 52 54  0  0  1  0  0  0  0  0999 V2000
    5.8649   -2.3478   -4.6844 N   0  0  0  0  0  0  0  0  0  0  0  0
    6.1028   -1.6163   -5.8158 C   0  0  0  0  0  0  0  0  0  0  0  0
    6.7941   -0.5999   -5.7850 O   0  0  0  0  0  0  0  0  0  0  0  0
    5.5857   -2.0137   -7.0105 N   0  0  0  0  0  0  0  0  0  0  0  0
    5.8248   -1.4409   -7.8138 H   0  0  0  0  0  0  0  0  0  0  0  0
    4.8224   -3.1170   -7.2281 C   0  0  0  0  0  0  0  0  0  0  0  0
    4.4249   -3.4554   -8.3380 O   0  0  0  0  0  0  0  0  0  0  0  0
    4.5006   -3.8720   -5.9759 C   0  0  0  0  0  0  0  0  0  0  0  0
    3.6643   -4.8594   -6.0330 N   0  0  0  0  0  0  0  0  0  0  0  0
    3.3340   -5.5239   -4.8428 C   0  0  0  0  0  0  0  0  0  0  0  0
    2.3697   -6.5396   -4.9505 C   0  0  0  0  0  0  0  0  0  0  0  0
    1.9000   -7.2255   -3.8277 C   0  0  0  0  0  0  0  0  0  0  0  0
    0.8956   -8.3323   -3.9916 C   0  0  0  0  0  0  0  0  0  0  0  0
    2.3814   -6.8383   -2.5713 C   0  0  0  0  0  0  0  0  0  0  0  0
    1.7417   -7.3043   -1.2919 C   0  0  0  0  0  0  0  0  0  0  0  0
    3.4569   -5.9287   -2.4824 C   0  0  0  0  0  0  0  0  0  0  0  0
    3.9068   -5.1938   -3.5895 C   0  0  0  0  0  0  0  0  0  0  0  0
    4.8686   -4.1425   -3.5036 N   0  0  0  0  0  0  0  0  0  0  0  0
    5.1301   -3.4171   -4.6765 C   0  0  0  0  0  0  0  0  0  0  0  0
    5.0052   -3.4205   -2.1974 C   0  0  0  0  0  0  0  0  0  0  0  0
    6.4657   -3.2009   -1.7276 C   0  0  2  0  0  0  0  0  0  0  0  0
    7.1093   -2.9104   -2.5657 H   0  0  0  0  0  0  0  0  0  0  0  0
    7.0059   -4.4341   -1.2252 O   0  0  0  0  0  0  0  0  0  0  0  0
    6.6080   -2.0739   -0.6497 C   0  0  2  0  0  0  0  0  0  0  0  0
    6.3287   -1.1314   -1.1363 H   0  0  0  0  0  0  0  0  0  0  0  0
    7.9870   -1.9412   -0.2560 O   0  0  0  0  0  0  0  0  0  0  0  0
    5.7723   -2.1992    0.6503 C   0  0  2  0  0  0  0  0  0  0  0  0
    6.0896   -3.0749    1.2269 H   0  0  0  0  0  0  0  0  0  0  0  0
    4.3793   -2.3521    0.3548 O   0  0  0  0  0  0  0  0  0  0  0  0
    5.9355   -0.9193    1.5065 C   0  0  0  0  0  0  0  0  0  0  0  0
    5.2217   -0.9878    2.7385 O   0  0  0  0  0  0  0  0  0  0  0  0
    5.8425   -1.8658    3.9211 P   0  0  0  0  0  0  0  0  0  0  0  0
    7.3216   -2.0102    3.9595 O   0  0  0  0  0  0  0  0  0  0  0  0
    5.1811   -1.2509    5.2342 O   0  0  0  0  0  0  0  0  0  0  0  0
    5.0766   -3.2591    3.7847 O   0  0  0  0  0  0  0  0  0  0  0  0
    1.9644   -6.7667   -5.9360 H   0  0  0  0  0  0  0  0  0  0  0  0
    0.8075   -8.6461   -5.0374 H   0  0  0  0  0  0  0  0  0  0  0  0
   -0.0926   -8.0189   -3.6435 H   0  0  0  0  0  0  0  0  0  0  0  0
    1.2173   -9.2145   -3.4256 H   0  0  0  0  0  0  0  0  0  0  0  0
    0.7180   -7.6547   -1.4570 H   0  0  0  0  0  0  0  0  0  0  0  0
    1.6516   -6.4518   -0.6070 H   0  0  0  0  0  0  0  0  0  0  0  0
    2.3236   -8.0947   -0.8152 H   0  0  0  0  0  0  0  0  0  0  0  0
    3.9073   -5.7983   -1.5021 H   0  0  0  0  0  0  0  0  0  0  0  0
    4.4854   -3.9466   -1.3998 H   0  0  0  0  0  0  0  0  0  0  0  0
    4.5056   -2.4510   -2.3095 H   0  0  0  0  0  0  0  0  0  0  0  0
    7.5850   -4.7916   -1.9231 H   0  0  0  0  0  0  0  0  0  0  0  0
    8.5022   -1.6550   -1.0284 H   0  0  0  0  0  0  0  0  0  0  0  0
    3.9318   -2.4665    1.2156 H   0  0  0  0  0  0  0  0  0  0  0  0
    5.5024   -0.0688    0.9675 H   0  0  0  0  0  0  0  0  0  0  0  0
    6.9832   -0.6802    1.7111 H   0  0  0  0  0  0  0  0  0  0  0  0
    4.2435   -1.0289    5.1008 H   0  0  0  0  0  0  0  0  0  0  0  0
    5.6234   -3.9699    4.1718 H   0  0  0  0  0  0  0  0  0  0  0  0
  1  2  1  0  0  0  0
  1 19  2  0  0  0  0
  2  3  2  0  0  0  0
  2  4  1  0  0  0  0
  4  5  1  0  0  0  0
  4  6  1  0  0  0  0
  6  7  2  0  0  0  0
  6  8  1  0  0  0  0
  8  9  2  0  0  0  0
  8 19  1  0  0  0  0
  9 10  1  0  0  0  0
 10 11  2  0  0  0  0
 10 17  1  0  0  0  0
 11 12  1  0  0  0  0
 11 36  1  0  0  0  0
 12 13  1  0  0  0  0
 12 14  2  0  0  0  0
 13 37  1  0  0  0  0
 13 38  1  0  0  0  0
 13 39  1  0  0  0  0
 14 15  1  0  0  0  0
 14 16  1  0  0  0  0
 15 40  1  0  0  0  0
 15 41  1  0  0  0  0
 15 42  1  0  0  0  0
 16 17  2  0  0  0  0
 16 43  1  0  0  0  0
 17 18  1  0  0  0  0
 18 19  1  0  0  0  0
 18 20  1  0  0  0  0
 20 44  1  0  0  0  0
 20 45  1  0  0  0  0
 21 23  1  0  0  0  0
 21 22  1  6  0  0  0
 21 20  1  0  0  0  0
 23 46  1  0  0  0  0
 24 26  1  0  0  0  0
 24 25  1  6  0  0  0
 24 21  1  0  0  0  0
 26 47  1  0  0  0  0
 27 29  1  0  0  0  0
 27 30  1  0  0  0  0
 27 28  1  1  0  0  0
 27 24  1  0  0  0  0
 29 48  1  0  0  0  0
 30 31  1  0  0  0  0
 30 49  1  0  0  0  0
 30 50  1  0  0  0  0
 31 32  1  0  0  0  0
 32 33  2  0  0  0  0
 32 34  1  0  0  0  0
 32 35  1  0  0  0  0
 34 51  1  0  0  0  0
 35 52  1  0  0  0  0
M  END
$$$$
