@<TRIPOS>MOLECULE
2KU0_ISI_A_39
 50 52 0 0 0
SMALL
GASTEIGER

@<TRIPOS>ATOM
      1 C          -3.2787   -2.7629    0.5072 C.ar    1  UNL1       -0.0175
      2 C          -2.5096   -3.6764   -0.2184 C.ar    1  UNL1       -0.0307
      3 C          -1.3029   -3.2356   -0.8164 C.ar    1  UNL1        0.0914
      4 C          -0.7102   -2.0359   -0.3748 C.ar    1  UNL1        0.0769
      5 C          -1.4136   -1.2024    0.5018 C.ar    1  UNL1        0.0234
      6 C          -2.6644   -1.6086    0.9494 C.ar    1  UNL1        0.1263
      7 O          -3.3217   -0.6567    1.6930 O.3     1  UNL1       -0.4869
      8 C          -2.4361    0.4906    1.7376 C.3     1  UNL1        0.1169
      9 H          -2.3135    0.7810    2.7863 H       1  UNL1        0.0749
     10 C          -1.0939    0.0936    1.1373 C.3     1  UNL1        0.0162
     11 C          -3.1478    1.6218    0.9783 C.3     1  UNL1        0.0357
     12 N          -2.3602    2.7991    0.5848 N.3     1  UNL1       -0.3048
     13 C          -3.2355    3.8502    0.0662 C.3     1  UNL1       -0.0129
     14 C          -1.4506    3.3429    1.5879 C.3     1  UNL1       -0.0129
     15 N           0.5189   -2.0031   -1.0420 N.ar    1  UNL1       -0.3117
     16 C           0.5367   -3.1437   -1.8568 C.ar    1  UNL1        0.1940
     17 N           1.6108   -3.4284   -2.6297 N.pl3   1  UNL1       -0.3288
     18 N          -0.3235   -4.0195   -1.3713 N.ar    1  UNL1       -0.2146
     19 C           1.3868   -0.8295   -1.2518 C.3     1  UNL1        0.0276
     20 C           1.7475   -0.0877    0.0346 C.3     1  UNL1       -0.0221
     21 C           3.2251    0.1330    0.3708 C.3     1  UNL1       -0.0001
     22 N           3.5325   -0.4040    1.7128 N.3     1  UNL1       -0.3083
     23 C           4.9731   -0.4793    1.9422 C.3     1  UNL1       -0.0130
     24 C           2.8720    0.3459    2.7880 C.3     1  UNL1       -0.0130
     25 H          -4.2368   -3.0713    0.9169 H       1  UNL1        0.0655
     26 H          -2.9823   -4.5913   -0.5850 H       1  UNL1        0.0641
     27 H          -0.3566   -0.0418    1.9317 H       1  UNL1        0.0351
     28 H          -0.7457    0.8122    0.4048 H       1  UNL1        0.0351
     29 H          -4.0272    1.9326    1.5559 H       1  UNL1        0.0463
     30 H          -3.5458    1.1847    0.0497 H       1  UNL1        0.0463
     31 H          -4.1902    3.4463   -0.2886 H       1  UNL1        0.0391
     32 H          -3.4614    4.6088    0.8243 H       1  UNL1        0.0391
     33 H          -2.7580    4.3490   -0.7840 H       1  UNL1        0.0391
     34 H          -0.6524    2.6366    1.8250 H       1  UNL1        0.0391
     35 H          -0.9366    4.2288    1.1902 H       1  UNL1        0.0391
     36 H          -1.9555    3.6245    2.5180 H       1  UNL1        0.0391
     37 H           1.6269   -4.3517   -3.0719 H       1  UNL1        0.1451
     38 H           2.0046   -2.6743   -3.1937 H       1  UNL1        0.1451
     39 H           2.3000   -1.1553   -1.7579 H       1  UNL1        0.0493
     40 H           0.8609   -0.1659   -1.9536 H       1  UNL1        0.0493
     41 H           1.3089   -0.6523    0.8550 H       1  UNL1        0.0295
     42 H           1.3003    0.9124   -0.0203 H       1  UNL1        0.0295
     43 H           3.8601   -0.3365   -0.3872 H       1  UNL1        0.0427
     44 H           3.4395    1.2101    0.3471 H       1  UNL1        0.0427
     45 H           5.4449   -1.1481    1.2134 H       1  UNL1        0.0391
     46 H           5.1887   -0.8957    2.9343 H       1  UNL1        0.0391
     47 H           5.4477    0.5055    1.8732 H       1  UNL1        0.0391
     48 H           1.8049    0.1057    2.8221 H       1  UNL1        0.0391
     49 H           2.9688    1.4291    2.6626 H       1  UNL1        0.0391
     50 H           3.2670    0.0724    3.7737 H       1  UNL1        0.0391
@<TRIPOS>BOND
     1     2     1   ar
     2     3     2   ar
     3     4     3   ar
     4     5     4   ar
     5     6     5   ar
     6     6     1   ar
     7     7     6    1
     8     8     7    1
     9     8     9    1
    10    10     8    1
    11    10     5    1
    12    11     8    1
    13    12    11    1
    14    13    12    1
    15    14    12    1
    16    15     4   ar
    17    16    15   ar
    18    17    16    1
    19    18    16   ar
    20    18     3   ar
    21    19    15    1
    22    20    19    1
    23    21    20    1
    24    22    21    1
    25    23    22    1
    26    24    22    1
    27     1    25    1
    28     2    26    1
    29    10    27    1
    30    10    28    1
    31    11    29    1
    32    11    30    1
    33    13    31    1
    34    13    32    1
    35    13    33    1
    36    14    34    1
    37    14    35    1
    38    14    36    1
    39    17    37    1
    40    17    38    1
    41    19    39    1
    42    19    40    1
    43    20    41    1
    44    20    42    1
    45    21    43    1
    46    21    44    1
    47    23    45    1
    48    23    46    1
    49    23    47    1
    50    24    48    1
    51    24    49    1
    52    24    50    1
