REMARK  7 active torsions:
REMARK  status: ('A' for Active; 'I' for Inactive)
REMARK    1  A    between atoms: C_10  and  C_8 
REMARK    2  A    between atoms: N_11  and  C_10 
REMARK    3  A    between atoms: C_18  and  N_14 
REMARK    4  A    between atoms: N_16  and  C_15 
REMARK    5  A    between atoms: C_19  and  C_18 
REMARK    6  A    between atoms: C_20  and  C_19 
REMARK    7  A    between atoms: N_21  and  C_20 
ROOT
ATOM      1  C   UNL d   1      -3.279  -2.763   0.507  0.00  0.00     0.040 C 
ATOM      2  C   UNL d   1      -2.510  -3.676  -0.218  0.00  0.00     0.037 C 
ATOM      3  C   UNL d   1      -1.303  -3.236  -0.816  0.00  0.00     0.104 C 
ATOM      4  C   UNL d   1      -0.710  -2.036  -0.375  0.00  0.00     0.090 C 
ATOM      5  C   UNL d   1      -1.414  -1.202   0.502  0.00  0.00     0.008 C 
ATOM      6  C   UNL d   1      -2.664  -1.609   0.949  0.00  0.00     0.078 C 
ATOM      7  O   UNL d   1      -3.322  -0.657   1.693  0.00  0.00    -0.343 OA
ATOM      8  C   UNL d   1      -2.436   0.491   1.738  0.00  0.00     0.161 C 
ATOM      9  C   UNL d   1      -1.094   0.094   1.137  0.00  0.00     0.078 C 
ATOM     10  N   UNL d   1       0.519  -2.003  -1.042  0.00  0.00    -0.179 N 
ATOM     11  C   UNL d   1       0.537  -3.144  -1.857  0.00  0.00     0.701 C 
ATOM     12  N   UNL d   1      -0.324  -4.019  -1.371  0.00  0.00    -0.063 NA
ENDROOT
BRANCH  10  13
ATOM     13  C   UNL d   1       1.387  -0.830  -1.252  0.00  0.00     0.149 C 
BRANCH  13  14
ATOM     14  C   UNL d   1       1.748  -0.088   0.035  0.00  0.00     0.051 C 
BRANCH  14  15
ATOM     15  C   UNL d   1       3.225   0.133   0.371  0.00  0.00     0.273 C 
BRANCH  15  16
ATOM     16  N   UNL d   1       3.533  -0.404   1.713  0.00  0.00     0.080 N 
ATOM     17  C   UNL d   1       4.973  -0.479   1.942  0.00  0.00     0.309 C 
ATOM     18  C   UNL d   1       2.872   0.346   2.788  0.00  0.00     0.309 C 
ENDBRANCH  15  16
ENDBRANCH  14  15
ENDBRANCH  13  14
ENDBRANCH  10  13
BRANCH  11  19
ATOM     19  N   UNL d   1       1.611  -3.428  -2.630  0.00  0.00    -0.233 N 
ATOM     20  H   UNL d   1       1.627  -4.352  -3.072  0.00  0.00     0.174 HD
ATOM     21  H   UNL d   1       2.005  -2.674  -3.194  0.00  0.00     0.174 HD
ENDBRANCH  11  19
BRANCH   8  22
ATOM     22  C   UNL d   1      -3.148   1.622   0.978  0.00  0.00     0.303 C 
BRANCH  22  23
ATOM     23  N   UNL d   1      -2.360   2.799   0.585  0.00  0.00     0.082 N 
ATOM     24  C   UNL d   1      -3.236   3.850   0.066  0.00  0.00     0.309 C 
ATOM     25  C   UNL d   1      -1.451   3.343   1.588  0.00  0.00     0.309 C 
ENDBRANCH  22  23
ENDBRANCH   8  22
TORSDOF 7
