@<TRIPOS>MOLECULE
3Q50_PRF_A_34
 22 23 0 0 0
SMALL
GASTEIGER

@<TRIPOS>ATOM
      1 N           2.1905   -1.0056   -0.1707 N.ar    1  UNL1       -0.2947
      2 H           2.8337   -1.7857   -0.2732 H       1  UNL1        0.1716
      3 C           2.7437    0.2792    0.0006 C.ar    1  UNL1        0.1949
      4 N           2.0007    1.3436    0.1949 N.ar    1  UNL1       -0.1982
      5 C           0.6703    1.1092    0.0800 C.ar    1  UNL1        0.1472
      6 C           0.0155   -0.0932   -0.0922 C.ar    1  UNL1        0.0874
      7 C           0.8200   -1.2864   -0.2501 C.ar    1  UNL1        0.2622
      8 O           0.3530   -2.4010   -0.4498 O.2     1  UNL1       -0.2670
      9 C          -1.3900    0.1585   -0.1036 C.ar    1  UNL1       -0.0020
     10 C          -2.4863   -0.8464   -0.2521 C.3     1  UNL1        0.0208
     11 N          -3.6633   -0.2975   -0.9207 N.3     1  UNL1       -0.3260
     12 C          -1.5237    1.5221    0.1158 C.ar    1  UNL1        0.0087
     13 N          -0.2760    2.0843    0.2108 N.ar    1  UNL1       -0.3453
     14 H          -0.0893    3.0675    0.3531 H       1  UNL1        0.1668
     15 N           4.1233    0.3351    0.0362 N.pl3   1  UNL1       -0.3289
     16 H          -2.7661   -1.2151    0.7408 H       1  UNL1        0.0472
     17 H          -2.1427   -1.7047   -0.8362 H       1  UNL1        0.0472
     18 H          -3.4573    0.5828   -1.3897 H       1  UNL1        0.1185
     19 H          -4.3906   -0.1004   -0.2344 H       1  UNL1        0.1185
     20 H          -2.4032    2.1460    0.2044 H       1  UNL1        0.0811
     21 H           4.5881   -0.5503   -0.1578 H       1  UNL1        0.1451
     22 H           4.4925    0.7094    0.9090 H       1  UNL1        0.1451
@<TRIPOS>BOND
     1     1     2    1
     2     3     1   ar
     3     4     3   ar
     4     5     4   ar
     5     6     5   ar
     6     7     6   ar
     7     7     1   ar
     8     8     7    2
     9     9     6   ar
    10    10     9    1
    11    11    10    1
    12    12     9   ar
    13    13    12   ar
    14    13    14    1
    15    13     5   ar
    16    15     3    1
    17    10    16    1
    18    10    17    1
    19    11    18    1
    20    11    19    1
    21    12    20    1
    22    15    21    1
    23    15    22    1
