REMARK  3 active torsions:
REMARK  status: ('A' for Active; 'I' for Inactive)
REMARK    1  A    between atoms: N_15  and  C_3 
REMARK    2  A    between atoms: C_10  and  C_9 
REMARK    3  A    between atoms: N_11  and  C_10 
ROOT
ATOM      1  N   UNL d   1       2.191  -1.006  -0.171  0.00  0.00    -0.298 N 
ATOM      2  H   UNL d   1       2.834  -1.786  -0.273  0.00  0.00     0.171 HD
ATOM      3  C   UNL d   1       2.744   0.279   0.001  0.00  0.00     0.181 A 
ATOM      4  N   UNL d   1       2.001   1.344   0.195  0.00  0.00    -0.201 NA
ATOM      5  C   UNL d   1       0.670   1.109   0.080  0.00  0.00     0.147 A 
ATOM      6  C   UNL d   1       0.015  -0.093  -0.092  0.00  0.00     0.087 A 
ATOM      7  C   UNL d   1       0.820  -1.286  -0.250  0.00  0.00     0.262 A 
ATOM      8  O   UNL d   1       0.353  -2.401  -0.450  0.00  0.00    -0.267 OA
ATOM      9  C   UNL d   1      -1.390   0.159  -0.104  0.00  0.00     0.004 A 
ATOM     10  C   UNL d   1      -1.524   1.522   0.116  0.00  0.00     0.099 A 
ATOM     11  N   UNL d   1      -0.276   2.084   0.211  0.00  0.00    -0.349 N 
ATOM     12  H   UNL d   1      -0.089   3.067   0.353  0.00  0.00     0.167 HD
ENDROOT
BRANCH   9  13
ATOM     13  C   UNL d   1      -2.486  -0.846  -0.252  0.00  0.00     0.307 C 
BRANCH  13  14
ATOM     14  N   UNL d   1      -3.663  -0.297  -0.921  0.00  0.00     0.082 N 
ATOM     15  H   UNL d   1      -3.457   0.583  -1.390  0.00  0.00     0.313 HD
ATOM     16  H   UNL d   1      -4.391  -0.100  -0.234  0.00  0.00     0.313 HD
ENDBRANCH  13  14
ENDBRANCH   9  13
BRANCH   3  17
ATOM     17  N   UNL d   1       4.123   0.335   0.036  0.00  0.00    -0.272 NA
ATOM     18  H   UNL d   1       4.588  -0.550  -0.158  0.00  0.00     0.127 HD
ATOM     19  H   UNL d   1       4.492   0.709   0.909  0.00  0.00     0.127 HD
ENDBRANCH   3  17
TORSDOF 3
