@<TRIPOS>MOLECULE
3NPQ_SAH_A_55
 46 48 0 0 0
SMALL
GASTEIGER

@<TRIPOS>ATOM
      1 N1         -1.4955    1.5425   -3.8866 N.3     1  <1>        -0.3184
      2 C1         -1.6337    0.8228   -5.1474 C.3     1  <1>         0.1040
      3 H1         -2.6395    1.0342   -5.5265 H       1  <1>         0.0574
      4 C2         -0.6363    1.2651   -6.2319 C.3     1  <1>        -0.0183
      5 C3          0.8473    1.2339   -5.8551 C.3     1  <1>        -0.0043
      6 S1          1.2197    2.5597   -4.6215 S.3     1  <1>        -0.1580
      7 C4          2.8630    3.0079   -5.1376 C.3     1  <1>         0.0226
      8 C5          3.2415    4.5062   -5.1976 C.3     1  <1>         0.0986
      9 H2          3.3699    4.6781   -6.2743 H       1  <1>         0.0632
     10 O1          2.4320    5.6470   -4.7830 O.3     1  <1>        -0.3471
     11 C6          3.3807    6.7647   -4.9741 C.3     1  <1>         0.1666
     12 H3          3.5567    6.8839   -6.0533 H       1  <1>         0.0866
     13 C7          4.6093    6.2232   -4.2495 C.3     1  <1>         0.1285
     14 H4          4.4716    6.4056   -3.1741 H       1  <1>         0.0665
     15 C8          4.5807    4.7228   -4.5150 C.3     1  <1>         0.1121
     16 H5          4.6632    4.1799   -3.5625 H       1  <1>         0.0647
     17 O2          5.5400    4.1850   -5.4083 O.3     1  <1>        -0.3865
     18 O3          5.7621    6.8740   -4.7219 O.3     1  <1>        -0.3847
     19 N2          2.9725    8.1151   -4.5273 N.ar    1  <1>        -0.2855
     20 C9          3.8936    9.1236   -4.2627 C.ar    1  <1>         0.1004
     21 N3          3.3873   10.3336   -4.3175 N.ar    1  <1>        -0.2306
     22 C10         2.0459   10.1309   -4.4585 C.ar    1  <1>         0.1473
     23 C11         1.0186   11.0754   -4.6555 C.ar    1  <1>         0.1472
     24 N4          1.1950   12.4373   -4.3312 N.pl3   1  <1>        -0.3413
     25 N5         -0.2225   10.5770   -4.9089 N.ar    1  <1>        -0.2188
     26 C12        -0.3456    9.2441   -5.1271 C.ar    1  <1>         0.1205
     27 N6          0.5951    8.2719   -5.0756 N.ar    1  <1>        -0.2159
     28 C13         1.7892    8.7861   -4.7478 C.ar    1  <1>         0.1674
     29 C14        -1.5251   -0.6556   -4.8425 C.2     1  <1>         0.3217
     30 O4         -0.5201   -1.2441   -4.4748 O.2     1  <1>        -0.2493
     31 O5         -2.7239   -1.2668   -5.0200 O.3     1  <1>        -0.4795
     32 H6         -0.5580    1.3934   -3.5094 H       1  <1>         0.1190
     33 H7         -2.1475    1.2009   -3.1865 H       1  <1>         0.1190
     34 H8         -0.8967    2.2750   -6.5783 H       1  <1>         0.0293
     35 H9         -0.7783    0.6246   -7.1148 H       1  <1>         0.0293
     36 H10         1.4296    1.3861   -6.7714 H       1  <1>         0.0377
     37 H11         1.1479    0.2533   -5.4689 H       1  <1>         0.0377
     38 H12         3.0048    2.6018   -6.1441 H       1  <1>         0.0402
     39 H13         3.5649    2.4124   -4.5349 H       1  <1>         0.0402
     40 H14         6.2782    4.7942   -5.5163 H       1  <1>         0.2100
     41 H15         6.5028    6.2563   -4.7260 H       1  <1>         0.2101
     42 H16         4.9509    8.9407   -4.1661 H       1  <1>         0.1030
     43 H17         1.9217   12.8603   -4.9062 H       1  <1>         0.1438
     44 H18         0.3268   12.9499   -4.4751 H       1  <1>         0.1438
     45 H19        -1.3534    8.9029   -5.3377 H       1  <1>         0.1048
     46 H20        -2.8081   -1.6416   -5.9214 H       1  <1>         0.2951
@<TRIPOS>BOND
     1     1     2    1
     2     1    32    1
     3     1    33    1
     4     2     3    1
     5     2     4    1
     6     2    29    1
     7     4     5    1
     8     4    34    1
     9     4    35    1
    10     5     6    1
    11     5    36    1
    12     5    37    1
    13     6     7    1
    14     7     8    1
    15     7    38    1
    16     7    39    1
    17     8     9    1
    18     8    10    1
    19     8    15    1
    20    10    11    1
    21    11    13    1
    22    11    19    1
    23    11    12    1
    24    13    14    1
    25    13    15    1
    26    13    18    1
    27    15    16    1
    28    15    17    1
    29    17    40    1
    30    18    41    1
    31    19    20   ar
    32    19    28   ar
    33    20    21   ar
    34    20    42    1
    35    21    22   ar
    36    22    23   ar
    37    22    28   ar
    38    23    24    1
    39    23    25   ar
    40    24    43    1
    41    24    44    1
    42    25    26   ar
    43    26    27   ar
    44    26    45    1
    45    27    28   ar
    46    29    30    2
    47    29    31    1
    48    31    46    1
