3NPQ_SAH_A_55
  1228              3D

 46 48  0  0  0  0  0  0  0  0999 V2000
   -1.4955    1.5425   -3.8866 N   0  0  0  0  0  0  0  0  0  0  0  0
   -1.6337    0.8228   -5.1474 C   0  0  0  0  0  0  0  0  0  0  0  0
   -2.6395    1.0342   -5.5265 H   0  0  0  0  0  0  0  0  0  0  0  0
   -0.6363    1.2651   -6.2319 C   0  0  0  0  0  0  0  0  0  0  0  0
    0.8473    1.2339   -5.8551 C   0  0  0  0  0  0  0  0  0  0  0  0
    1.2197    2.5597   -4.6215 S   0  0  0  0  0  0  0  0  0  0  0  0
    2.8630    3.0079   -5.1376 C   0  0  0  0  0  0  0  0  0  0  0  0
    3.2415    4.5062   -5.1976 C   0  0  0  0  0  0  0  0  0  0  0  0
    3.3699    4.6781   -6.2743 H   0  0  0  0  0  0  0  0  0  0  0  0
    2.4320    5.6470   -4.7830 O   0  0  0  0  0  0  0  0  0  0  0  0
    3.3807    6.7647   -4.9741 C   0  0  0  0  0  0  0  0  0  0  0  0
    3.5567    6.8839   -6.0533 H   0  0  0  0  0  0  0  0  0  0  0  0
    4.6093    6.2232   -4.2495 C   0  0  0  0  0  0  0  0  0  0  0  0
    4.4716    6.4056   -3.1741 H   0  0  0  0  0  0  0  0  0  0  0  0
    4.5807    4.7228   -4.5150 C   0  0  0  0  0  0  0  0  0  0  0  0
    4.6632    4.1799   -3.5625 H   0  0  0  0  0  0  0  0  0  0  0  0
    5.5400    4.1850   -5.4083 O   0  0  0  0  0  0  0  0  0  0  0  0
    5.7621    6.8740   -4.7219 O   0  0  0  0  0  0  0  0  0  0  0  0
    2.9725    8.1151   -4.5273 N   0  0  0  0  0  0  0  0  0  0  0  0
    3.8936    9.1236   -4.2627 C   0  0  0  0  0  0  0  0  0  0  0  0
    3.3873   10.3336   -4.3175 N   0  0  0  0  0  0  0  0  0  0  0  0
    2.0459   10.1309   -4.4585 C   0  0  0  0  0  0  0  0  0  0  0  0
    1.0186   11.0754   -4.6555 C   0  0  0  0  0  0  0  0  0  0  0  0
    1.1950   12.4373   -4.3312 N   0  0  0  0  0  0  0  0  0  0  0  0
   -0.2225   10.5770   -4.9089 N   0  0  0  0  0  0  0  0  0  0  0  0
   -0.3456    9.2441   -5.1271 C   0  0  0  0  0  0  0  0  0  0  0  0
    0.5951    8.2719   -5.0756 N   0  0  0  0  0  0  0  0  0  0  0  0
    1.7892    8.7861   -4.7478 C   0  0  0  0  0  0  0  0  0  0  0  0
   -1.5251   -0.6556   -4.8425 C   0  0  0  0  0  0  0  0  0  0  0  0
   -0.5201   -1.2441   -4.4748 O   0  0  0  0  0  0  0  0  0  0  0  0
   -2.7239   -1.2668   -5.0200 O   0  0  0  0  0  0  0  0  0  0  0  0
   -0.5580    1.3934   -3.5094 H   0  0  0  0  0  0  0  0  0  0  0  0
   -2.1475    1.2009   -3.1865 H   0  0  0  0  0  0  0  0  0  0  0  0
   -0.8967    2.2750   -6.5783 H   0  0  0  0  0  0  0  0  0  0  0  0
   -0.7783    0.6246   -7.1148 H   0  0  0  0  0  0  0  0  0  0  0  0
    1.4296    1.3861   -6.7714 H   0  0  0  0  0  0  0  0  0  0  0  0
    1.1479    0.2533   -5.4689 H   0  0  0  0  0  0  0  0  0  0  0  0
    3.0048    2.6018   -6.1441 H   0  0  0  0  0  0  0  0  0  0  0  0
    3.5649    2.4124   -4.5349 H   0  0  0  0  0  0  0  0  0  0  0  0
    6.2782    4.7942   -5.5163 H   0  0  0  0  0  0  0  0  0  0  0  0
    6.5028    6.2563   -4.7260 H   0  0  0  0  0  0  0  0  0  0  0  0
    4.9509    8.9407   -4.1661 H   0  0  0  0  0  0  0  0  0  0  0  0
    1.9217   12.8603   -4.9062 H   0  0  0  0  0  0  0  0  0  0  0  0
    0.3268   12.9499   -4.4751 H   0  0  0  0  0  0  0  0  0  0  0  0
   -1.3534    8.9029   -5.3377 H   0  0  0  0  0  0  0  0  0  0  0  0
   -2.8081   -1.6416   -5.9214 H   0  0  0  0  0  0  0  0  0  0  0  0
  1  2  1  0  0  0  0
  1 32  1  0  0  0  0
  1 33  1  0  0  0  0
  2  3  1  0  0  0  0
  2  4  1  0  0  0  0
  2 29  1  0  0  0  0
  4  5  1  0  0  0  0
  4 34  1  0  0  0  0
  4 35  1  0  0  0  0
  5  6  1  0  0  0  0
  5 36  1  0  0  0  0
  5 37  1  0  0  0  0
  6  7  1  0  0  0  0
  7  8  1  0  0  0  0
  7 38  1  0  0  0  0
  7 39  1  0  0  0  0
  8  9  1  0  0  0  0
  8 10  1  0  0  0  0
  8 15  1  0  0  0  0
 10 11  1  0  0  0  0
 11 13  1  0  0  0  0
 11 19  1  0  0  0  0
 11 12  1  0  0  0  0
 13 14  1  0  0  0  0
 13 15  1  0  0  0  0
 13 18  1  0  0  0  0
 15 16  1  0  0  0  0
 15 17  1  0  0  0  0
 17 40  1  0  0  0  0
 18 41  1  0  0  0  0
 19 20  1  0  0  0  0
 19 28  1  0  0  0  0
 20 21  2  0  0  0  0
 20 42  1  0  0  0  0
 21 22  1  0  0  0  0
 22 23  2  0  0  0  0
 22 28  1  0  0  0  0
 23 24  1  0  0  0  0
 23 25  1  0  0  0  0
 24 43  1  0  0  0  0
 24 44  1  0  0  0  0
 25 26  2  0  0  0  0
 26 27  1  0  0  0  0
 26 45  1  0  0  0  0
 27 28  2  0  0  0  0
 29 30  2  0  0  0  0
 29 31  1  0  0  0  0
 31 46  1  0  0  0  0
M  END
>  <energy>
115.61987617452365

$$$$
