REMARK  12 active torsions:
REMARK  status: ('A' for Active; 'I' for Inactive)
REMARK    1  A    between atoms: N1_1  and  C1_2 
REMARK    2  A    between atoms: C1_2  and  C2_3 
REMARK    3  A    between atoms: C1_2  and  C14_24 
REMARK    4  A    between atoms: C2_3  and  C3_4 
REMARK    5  A    between atoms: C3_4  and  S1_5 
REMARK    6  A    between atoms: S1_5  and  C4_6 
REMARK    7  A    between atoms: C4_6  and  C5_7 
REMARK    8  A    between atoms: C6_9  and  N2_14 
REMARK    9  A    between atoms: C7_10  and  O3_13 
REMARK   10  A    between atoms: C8_11  and  O2_12 
REMARK   11  A    between atoms: C11_18  and  N4_19 
REMARK   12  A    between atoms: C14_24  and  O5_26 
ROOT
ATOM      1  C5  <1> d           3.241   4.506  -5.198  0.00  0.00     0.165 C 
ATOM      2  O1  <1> d           2.432   5.647  -4.783  0.00  0.00    -0.355 OA
ATOM      3  C6  <1> d           3.381   6.765  -4.974  0.00  0.00     0.262 C 
ATOM      4  C7  <1> d           4.609   6.223  -4.250  0.00  0.00     0.198 C 
ATOM      5  C8  <1> d           4.581   4.723  -4.515  0.00  0.00     0.180 C 
ENDROOT
BRANCH   1   6
ATOM      6  C4  <1> d           2.863   3.008  -5.138  0.00  0.00     0.108 C 
BRANCH   6   7
ATOM      7  S1  <1> d           1.220   2.560  -4.622  0.00  0.00    -0.166 SA
BRANCH   7   8
ATOM      8  C3  <1> d           0.847   1.234  -5.855  0.00  0.00     0.076 C 
BRANCH   8   9
ATOM      9  C2  <1> d          -0.636   1.265  -6.232  0.00  0.00     0.056 C 
BRANCH   9  10
ATOM     10  C1  <1> d          -1.634   0.823  -5.147  0.00  0.00     0.315 C 
BRANCH  10  11
ATOM     11  N1  <1> d          -1.496   1.542  -3.887  0.00  0.00     0.093 N 
ATOM     12  H6  <1> d          -0.558   1.393  -3.509  0.00  0.00     0.314 HD
ATOM     13  H7  <1> d          -2.147   1.201  -3.187  0.00  0.00     0.314 HD
ENDBRANCH  10  11
BRANCH  10  14
ATOM     14  C14 <1> d          -1.525  -0.656  -4.843  0.00  0.00     0.173 C 
ATOM     15  O4  <1> d          -0.520  -1.244  -4.475  0.00  0.00    -0.648 OA
BRANCH  14  16
ATOM     16  O5  <1> d          -2.724  -1.267  -5.020  0.00  0.00    -0.775 OA
ATOM     17  H20 <1> d          -2.808  -1.642  -5.921  0.00  0.00     0.167 HD
ENDBRANCH  14  16
ENDBRANCH  10  14
ENDBRANCH   9  10
ENDBRANCH   8   9
ENDBRANCH   7   8
ENDBRANCH   6   7
ENDBRANCH   1   6
BRANCH   5  18
ATOM     18  O2  <1> d           5.540   4.185  -5.408  0.00  0.00    -0.390 OA
ATOM     19  H14 <1> d           6.278   4.794  -5.516  0.00  0.00     0.210 HD
ENDBRANCH   5  18
BRANCH   3  20
ATOM     20  N2  <1> d           2.973   8.115  -4.527  0.00  0.00    -0.294 N 
ATOM     21  C9  <1> d           3.894   9.124  -4.263  0.00  0.00     0.214 C 
ATOM     22  N3  <1> d           3.387  10.334  -4.317  0.00  0.00    -0.236 NA
ATOM     23  C10 <1> d           2.046  10.131  -4.458  0.00  0.00     0.144 C 
ATOM     24  C11 <1> d           1.019  11.075  -4.655  0.00  0.00     0.135 C 
ATOM     25  C13 <1> d           1.789   8.786  -4.748  0.00  0.00     0.166 C 
ATOM     26  N5  <1> d          -0.223  10.577  -4.909  0.00  0.00    -0.228 NA
ATOM     27  C12 <1> d          -0.346   9.244  -5.127  0.00  0.00     0.237 C 
ATOM     28  N6  <1> d           0.595   8.272  -5.076  0.00  0.00    -0.222 NA
BRANCH  24  29
ATOM     29  N4  <1> d           1.195  12.437  -4.331  0.00  0.00    -0.285 NA
ATOM     30  H17 <1> d           1.922  12.860  -4.906  0.00  0.00     0.125 HD
ATOM     31  H18 <1> d           0.327  12.950  -4.475  0.00  0.00     0.125 HD
ENDBRANCH  24  29
ENDBRANCH   3  20
BRANCH   4  32
ATOM     32  O3  <1> d           5.762   6.874  -4.722  0.00  0.00    -0.388 OA
ATOM     33  H15 <1> d           6.503   6.256  -4.726  0.00  0.00     0.210 HD
ENDBRANCH   4  32
TORSDOF 12
