@<TRIPOS>MOLECULE
1AM0_AMP_A_41
 37 39 0 0 0
SMALL
GASTEIGER

@<TRIPOS>ATOM
      1 P           1.1430    1.7715   -1.8778 P.3     1  UNL1        0.4724
      2 O           0.9162    1.4708   -0.3970 O.2     1  UNL1       -0.2275
      3 O           1.2727    3.3868   -2.0065 O.3     1  UNL1       -0.3026
      4 O          -0.5732    1.9603   -1.9868 O.3     1  UNL1       -0.3026
      5 O           2.8592    1.5827   -1.7687 O.3     1  UNL1       -0.2841
      6 C           3.2706    0.3034   -1.2812 C.3     1  UNL1        0.0878
      7 C           4.7929    0.2178   -1.2335 C.3     1  UNL1        0.1134
      8 H           5.2038    0.3834   -2.2371 H       1  UNL1        0.0647
      9 O           5.3373    1.2307   -0.3700 O.3     1  UNL1       -0.3456
     10 C           6.6467    0.7705    0.0023 C.3     1  UNL1        0.1667
     11 H           7.3512    1.0369   -0.7978 H       1  UNL1        0.0866
     12 C           6.5253   -0.7535    0.1490 C.3     1  UNL1        0.1285
     13 H           6.3809   -1.0631    1.1907 H       1  UNL1        0.0665
     14 C           5.2650   -1.1101   -0.6396 C.3     1  UNL1        0.1135
     15 H           4.5170   -1.5116    0.0527 H       1  UNL1        0.0647
     16 O           5.4868   -2.0833   -1.6531 O.3     1  UNL1       -0.3864
     17 O           7.6594   -1.4614   -0.3675 O.3     1  UNL1       -0.3847
     18 N           7.0862    1.4967    1.1774 N.ar    1  UNL1       -0.2855
     19 C           6.7313    2.7844    1.4973 C.ar    1  UNL1        0.1004
     20 N           7.3907    3.2346    2.5445 N.ar    1  UNL1       -0.2306
     21 C           8.2150    2.1919    2.9155 C.ar    1  UNL1        0.1473
     22 C           9.1582    2.0594    3.9450 C.ar    1  UNL1        0.1472
     23 N           9.4708    3.0858    4.8259 N.pl3   1  UNL1       -0.3413
     24 N           9.7851    0.8700    4.0937 N.ar    1  UNL1       -0.2188
     25 C           9.5106   -0.1145    3.2099 C.ar    1  UNL1        0.1205
     26 N           8.6676   -0.0887    2.1527 N.ar    1  UNL1       -0.2159
     27 C           8.0345    1.0956    2.0822 C.ar    1  UNL1        0.1674
     28 H           1.1647    3.6966   -2.9209 H       1  UNL1        0.2220
     29 H          -0.8048    2.1255   -1.0469 H       1  UNL1        0.2220
     30 H           2.8613   -0.4720   -1.9349 H       1  UNL1        0.0592
     31 H           2.8792    0.1690   -0.2702 H       1  UNL1        0.0592
     32 H           6.3838   -2.4420   -1.4791 H       1  UNL1        0.2100
     33 H           8.4022   -1.2504    0.2379 H       1  UNL1        0.2101
     34 H           5.9979    3.3438    0.9290 H       1  UNL1        0.1030
     35 H           8.7634    3.8116    4.8695 H       1  UNL1        0.1438
     36 H           9.8641    2.7526    5.6946 H       1  UNL1        0.1438
     37 H          10.0353   -1.0510    3.3777 H       1  UNL1        0.1048
@<TRIPOS>BOND
     1     1     2    2
     2     1     3    1
     3     1     4    1
     4     1     5    1
     5     3    28    1
     6     4    29    1
     7     5     6    1
     8     6     7    1
     9     6    30    1
    10     6    31    1
    11     7     8    1
    12     7     9    1
    13     7    14    1
    14     9    10    1
    15    10    12    1
    16    10    18    1
    17    10    11    1
    18    12    13    1
    19    12    14    1
    20    12    17    1
    21    14    15    1
    22    14    16    1
    23    16    32    1
    24    17    33    1
    25    18    19   ar
    26    18    27   ar
    27    19    20   ar
    28    19    34    1
    29    20    21   ar
    30    21    22   ar
    31    21    27   ar
    32    22    23    1
    33    22    24   ar
    34    23    35    1
    35    23    36    1
    36    24    25   ar
    37    25    26   ar
    38    25    37    1
    39    26    27   ar
