REMARK  9 active torsions:
REMARK  status: ('A' for Active; 'I' for Inactive)
REMARK    1  A    between atoms: P_1  and  O_3 
REMARK    2  A    between atoms: P_1  and  O_4 
REMARK    3  A    between atoms: P_1  and  O_5 
REMARK    4  A    between atoms: O_5  and  C_6 
REMARK    5  A    between atoms: C_6  and  C_7 
REMARK    6  A    between atoms: C_9  and  N_14 
REMARK    7  A    between atoms: C_10  and  O_13 
REMARK    8  A    between atoms: C_11  and  O_12 
REMARK    9  A    between atoms: C_18  and  N_19 
ROOT
ATOM      1  C   UNL d   1       4.793   0.218  -1.234  0.00  0.00     0.180 C 
ATOM      2  O   UNL d   1       5.337   1.231  -0.370  0.00  0.00    -0.353 OA
ATOM      3  C   UNL d   1       6.647   0.770   0.002  0.00  0.00     0.262 C 
ATOM      4  C   UNL d   1       6.525  -0.753   0.149  0.00  0.00     0.198 C 
ATOM      5  C   UNL d   1       5.265  -1.110  -0.640  0.00  0.00     0.182 C 
ENDROOT
BRANCH   3   6
ATOM      6  N   UNL d   1       7.086   1.497   1.177  0.00  0.00    -0.294 N 
ATOM      7  C   UNL d   1       6.731   2.784   1.497  0.00  0.00     0.214 A 
ATOM      8  N   UNL d   1       7.391   3.235   2.545  0.00  0.00    -0.236 NA
ATOM      9  C   UNL d   1       8.215   2.192   2.916  0.00  0.00     0.149 A 
ATOM     10  C   UNL d   1       9.158   2.059   3.945  0.00  0.00     0.155 A 
ATOM     11  C   UNL d   1       8.034   1.096   2.082  0.00  0.00     0.167 A 
ATOM     12  N   UNL d   1       9.785   0.870   4.094  0.00  0.00    -0.222 NA
ATOM     13  C   UNL d   1       9.511  -0.115   3.210  0.00  0.00     0.237 A 
ATOM     14  N   UNL d   1       8.668  -0.089   2.153  0.00  0.00    -0.222 NA
BRANCH  10  15
ATOM     15  N   UNL d   1       9.471   3.086   4.826  0.00  0.00    -0.382 N 
ATOM     16  H   UNL d   1       8.763   3.812   4.870  0.00  0.00     0.157 HD
ATOM     17  H   UNL d   1       9.864   2.753   5.695  0.00  0.00     0.157 HD
ENDBRANCH  10  15
ENDBRANCH   3   6
BRANCH   4  18
ATOM     18  O   UNL d   1       7.659  -1.461  -0.367  0.00  0.00    -0.388 OA
ATOM     19  H   UNL d   1       8.402  -1.250   0.238  0.00  0.00     0.210 HD
ENDBRANCH   4  18
BRANCH   1  20
ATOM     20  C   UNL d   1       3.271   0.303  -1.281  0.00  0.00     0.215 C 
BRANCH  20  21
ATOM     21  O   UNL d   1       2.859   1.583  -1.769  0.00  0.00    -0.294 OA
BRANCH  21  22
ATOM     22  P   UNL d   1       1.143   1.772  -1.878  0.00  0.00     0.390 P 
ATOM     23  O   UNL d   1       0.916   1.471  -0.397  0.00  0.00    -0.632 OA
BRANCH  22  24
ATOM     24  O   UNL d   1       1.273   3.387  -2.006  0.00  0.00    -0.307 OA
ATOM     25  H   UNL d   1       1.165   3.697  -2.921  0.00  0.00     0.222 HD
ENDBRANCH  22  24
BRANCH  22  26
ATOM     26  O   UNL d   1      -0.573   1.960  -1.987  0.00  0.00    -0.307 OA
ATOM     27  H   UNL d   1      -0.805   2.126  -1.047  0.00  0.00     0.222 HD
ENDBRANCH  22  26
ENDBRANCH  21  22
ENDBRANCH  20  21
ENDBRANCH   1  20
BRANCH   5  28
ATOM     28  O   UNL d   1       5.487  -2.083  -1.653  0.00  0.00    -0.390 OA
ATOM     29  H   UNL d   1       6.384  -2.442  -1.479  0.00  0.00     0.210 HD
ENDBRANCH   5  28
TORSDOF 9
