1AM0_AMP_A_41
 OpenBabel03221816513D

 37 39  0  0  1  0  0  0  0  0999 V2000
    1.1430    1.7715   -1.8778 P   0  0  0  0  0  0  0  0  0  0  0  0
    0.9162    1.4708   -0.3970 O   0  0  0  0  0  0  0  0  0  0  0  0
    1.2727    3.3868   -2.0065 O   0  0  0  0  0  0  0  0  0  0  0  0
   -0.5732    1.9603   -1.9868 O   0  0  0  0  0  0  0  0  0  0  0  0
    2.8592    1.5827   -1.7687 O   0  0  0  0  0  0  0  0  0  0  0  0
    3.2706    0.3034   -1.2812 C   0  0  0  0  0  0  0  0  0  0  0  0
    4.7929    0.2178   -1.2335 C   0  0  1  0  0  0  0  0  0  0  0  0
    5.2038    0.3834   -2.2371 H   0  0  0  0  0  0  0  0  0  0  0  0
    5.3373    1.2307   -0.3700 O   0  0  0  0  0  0  0  0  0  0  0  0
    6.6467    0.7705    0.0023 C   0  0  2  0  0  0  0  0  0  0  0  0
    7.3512    1.0369   -0.7978 H   0  0  0  0  0  0  0  0  0  0  0  0
    6.5253   -0.7535    0.1490 C   0  0  1  0  0  0  0  0  0  0  0  0
    6.3809   -1.0631    1.1907 H   0  0  0  0  0  0  0  0  0  0  0  0
    5.2650   -1.1101   -0.6396 C   0  0  2  0  0  0  0  0  0  0  0  0
    4.5170   -1.5116    0.0527 H   0  0  0  0  0  0  0  0  0  0  0  0
    5.4868   -2.0833   -1.6531 O   0  0  0  0  0  0  0  0  0  0  0  0
    7.6594   -1.4614   -0.3675 O   0  0  0  0  0  0  0  0  0  0  0  0
    7.0862    1.4967    1.1774 N   0  0  0  0  0  0  0  0  0  0  0  0
    6.7313    2.7844    1.4973 C   0  0  0  0  0  0  0  0  0  0  0  0
    7.3907    3.2346    2.5445 N   0  0  0  0  0  0  0  0  0  0  0  0
    8.2150    2.1919    2.9155 C   0  0  0  0  0  0  0  0  0  0  0  0
    9.1582    2.0594    3.9450 C   0  0  0  0  0  0  0  0  0  0  0  0
    9.4708    3.0858    4.8259 N   0  0  0  0  0  0  0  0  0  0  0  0
    9.7851    0.8700    4.0937 N   0  0  0  0  0  0  0  0  0  0  0  0
    9.5106   -0.1145    3.2099 C   0  0  0  0  0  0  0  0  0  0  0  0
    8.6676   -0.0887    2.1527 N   0  0  0  0  0  0  0  0  0  0  0  0
    8.0345    1.0956    2.0822 C   0  0  0  0  0  0  0  0  0  0  0  0
    1.1647    3.6966   -2.9209 H   0  0  0  0  0  0  0  0  0  0  0  0
   -0.8048    2.1255   -1.0469 H   0  0  0  0  0  0  0  0  0  0  0  0
    2.8613   -0.4720   -1.9349 H   0  0  0  0  0  0  0  0  0  0  0  0
    2.8792    0.1690   -0.2702 H   0  0  0  0  0  0  0  0  0  0  0  0
    6.3838   -2.4420   -1.4791 H   0  0  0  0  0  0  0  0  0  0  0  0
    8.4022   -1.2504    0.2379 H   0  0  0  0  0  0  0  0  0  0  0  0
    5.9979    3.3438    0.9290 H   0  0  0  0  0  0  0  0  0  0  0  0
    8.7634    3.8116    4.8695 H   0  0  0  0  0  0  0  0  0  0  0  0
    9.8641    2.7526    5.6946 H   0  0  0  0  0  0  0  0  0  0  0  0
   10.0353   -1.0510    3.3777 H   0  0  0  0  0  0  0  0  0  0  0  0
  1  2  2  0  0  0  0
  1  3  1  0  0  0  0
  1  4  1  0  0  0  0
  1  5  1  0  0  0  0
  3 28  1  0  0  0  0
  4 29  1  0  0  0  0
  5  6  1  0  0  0  0
  6  7  1  0  0  0  0
  6 30  1  0  0  0  0
  6 31  1  0  0  0  0
  7  8  1  0  0  0  0
  7  9  1  0  0  0  0
  7 14  1  1  0  0  0
  9 10  1  0  0  0  0
 10 12  1  1  0  0  0
 10 18  1  0  0  0  0
 10 11  1  0  0  0  0
 12 13  1  0  0  0  0
 12 14  1  6  0  0  0
 12 17  1  0  0  0  0
 14 15  1  1  0  0  0
 14 16  1  0  0  0  0
 16 32  1  0  0  0  0
 17 33  1  0  0  0  0
 18 19  1  0  0  0  0
 18 27  1  0  0  0  0
 19 20  2  0  0  0  0
 19 34  1  0  0  0  0
 20 21  1  0  0  0  0
 21 22  2  0  0  0  0
 21 27  1  0  0  0  0
 22 23  1  0  0  0  0
 22 24  1  0  0  0  0
 23 35  1  0  0  0  0
 23 36  1  0  0  0  0
 24 25  2  0  0  0  0
 25 26  1  0  0  0  0
 25 37  1  0  0  0  0
 26 27  2  0  0  0  0
M  END
$$$$
