ligand.pdb
 OpenBabel03221817313D

 51 53  0  0  1  0  0  0  0  0999 V2000
    8.1954   -1.0490    2.7109 N   0  0  0  0  0  0  0  0  0  0  0  0
    8.4750   -0.5605    1.3360 C   0  0  2  0  0  0  0  0  0  0  0  0
    8.9599   -1.3801    0.7982 H   0  0  0  0  0  0  0  0  0  0  0  0
    9.4408    0.6369    1.4202 C   0  0  0  0  0  0  0  0  0  0  0  0
    9.5260    1.3806    2.3870 O   0  0  0  0  0  0  0  0  0  0  0  0
   10.2176    0.7894    0.3251 O   0  0  0  0  0  0  0  0  0  0  0  0
    7.1404   -0.1786    0.6856 C   0  0  0  0  0  0  0  0  0  0  0  0
    7.1897    0.3189   -0.7536 C   0  0  0  0  0  0  0  0  0  0  0  0
    7.9159   -0.7459   -1.9770 S   0  0  2  0  0  0  0  0  0  0  0  0
    9.2194   -1.0057   -1.8002 H   0  0  0  0  0  0  0  0  0  0  0  0
    7.6606    0.1383   -3.4917 C   0  0  0  0  0  0  0  0  0  0  0  0
    6.9867   -2.2651   -2.1220 C   0  0  0  0  0  0  0  0  0  0  0  0
    7.4845   -3.1917   -3.2440 C   0  0  1  0  0  0  0  0  0  0  0  0
    7.3524   -2.6934   -4.2120 H   0  0  0  0  0  0  0  0  0  0  0  0
    8.8850   -3.5095   -3.1057 O   0  0  0  0  0  0  0  0  0  0  0  0
    9.0737   -4.7404   -3.8503 C   0  0  2  0  0  0  0  0  0  0  0  0
    9.1695   -4.5069   -4.9169 H   0  0  0  0  0  0  0  0  0  0  0  0
    7.8360   -5.5824   -3.5341 C   0  0  1  0  0  0  0  0  0  0  0  0
    8.0029   -6.1865   -2.6337 H   0  0  0  0  0  0  0  0  0  0  0  0
    6.7547   -4.5468   -3.2335 C   0  0  2  0  0  0  0  0  0  0  0  0
    6.3216   -4.7548   -2.2491 H   0  0  0  0  0  0  0  0  0  0  0  0
    5.6954   -4.5717   -4.1826 O   0  0  0  0  0  0  0  0  0  0  0  0
    7.4291   -6.4667   -4.5815 O   0  0  0  0  0  0  0  0  0  0  0  0
   10.3025   -5.3955   -3.4374 N   0  0  0  0  0  0  0  0  0  0  0  0
   10.7451   -6.6026   -3.9222 C   0  0  0  0  0  0  0  0  0  0  0  0
   10.1750   -7.3614   -4.8757 N   0  0  0  0  0  0  0  0  0  0  0  0
   10.9014   -8.4859   -5.0801 C   0  0  0  0  0  0  0  0  0  0  0  0
   12.0138   -8.8934   -4.4381 N   0  0  0  0  0  0  0  0  0  0  0  0
   12.5222   -8.1109   -3.4584 C   0  0  0  0  0  0  0  0  0  0  0  0
   11.8850   -6.8863   -3.1896 C   0  0  0  0  0  0  0  0  0  0  0  0
   12.1607   -5.8623   -2.3016 N   0  0  0  0  0  0  0  0  0  0  0  0
   11.1932   -4.9879   -2.4836 C   0  0  0  0  0  0  0  0  0  0  0  0
   13.6444   -8.5609   -2.7761 N   0  0  0  0  0  0  0  0  0  0  0  0
    7.8180   -0.2590    3.2480 H   0  0  0  0  0  0  0  0  0  0  0  0
    9.0871   -1.2405    3.1755 H   0  0  0  0  0  0  0  0  0  0  0  0
   10.0648    0.1164   -0.3644 H   0  0  0  0  0  0  0  0  0  0  0  0
    6.6836    0.6268    1.2790 H   0  0  0  0  0  0  0  0  0  0  0  0
    6.4493   -1.0293    0.7437 H   0  0  0  0  0  0  0  0  0  0  0  0
    7.7463    1.2611   -0.8063 H   0  0  0  0  0  0  0  0  0  0  0  0
    6.1695    0.5314   -1.0912 H   0  0  0  0  0  0  0  0  0  0  0  0
    8.1669   -0.3893   -4.2997 H   0  0  0  0  0  0  0  0  0  0  0  0
    8.0824    1.1388   -3.3758 H   0  0  0  0  0  0  0  0  0  0  0  0
    6.5879    0.2060   -3.6853 H   0  0  0  0  0  0  0  0  0  0  0  0
    5.9386   -1.9955   -2.2839 H   0  0  0  0  0  0  0  0  0  0  0  0
    7.0809   -2.7561   -1.1492 H   0  0  0  0  0  0  0  0  0  0  0  0
    5.6570   -5.4977   -4.5035 H   0  0  0  0  0  0  0  0  0  0  0  0
    8.2016   -7.0386   -4.7860 H   0  0  0  0  0  0  0  0  0  0  0  0
   10.5403   -9.1532   -5.8581 H   0  0  0  0  0  0  0  0  0  0  0  0
   11.0868   -4.0535   -1.9452 H   0  0  0  0  0  0  0  0  0  0  0  0
   14.1649   -9.2536   -3.2970 H   0  0  0  0  0  0  0  0  0  0  0  0
   14.1636   -7.8284   -2.3063 H   0  0  0  0  0  0  0  0  0  0  0  0
  1 34  1  0  0  0  0
  1 35  1  0  0  0  0
  2  4  1  0  0  0  0
  2  7  1  0  0  0  0
  2  3  1  6  0  0  0
  2  1  1  0  0  0  0
  4  5  2  0  0  0  0
  4  6  1  0  0  0  0
  6 36  1  0  0  0  0
  7  8  1  0  0  0  0
  7 37  1  0  0  0  0
  7 38  1  0  0  0  0
  8 39  1  0  0  0  0
  8 40  1  0  0  0  0
  9 11  1  0  0  0  0
  9 12  1  0  0  0  0
  9 10  1  1  0  0  0
  9  8  1  0  0  0  0
 11 41  1  0  0  0  0
 11 42  1  0  0  0  0
 11 43  1  0  0  0  0
 12 13  1  0  0  0  0
 12 44  1  0  0  0  0
 12 45  1  0  0  0  0
 13 14  1  0  0  0  0
 13 15  1  0  0  0  0
 13 20  1  1  0  0  0
 15 16  1  0  0  0  0
 16 18  1  1  0  0  0
 16 24  1  0  0  0  0
 16 17  1  0  0  0  0
 18 19  1  0  0  0  0
 18 20  1  1  0  0  0
 18 23  1  0  0  0  0
 20 21  1  1  0  0  0
 20 22  1  0  0  0  0
 22 46  1  0  0  0  0
 23 47  1  0  0  0  0
 24 25  1  0  0  0  0
 24 32  1  0  0  0  0
 25 26  2  0  0  0  0
 25 30  1  0  0  0  0
 26 27  1  0  0  0  0
 27 28  2  0  0  0  0
 27 48  1  0  0  0  0
 28 29  1  0  0  0  0
 29 30  2  0  0  0  0
 29 33  1  0  0  0  0
 30 31  1  0  0  0  0
 31 32  2  0  0  0  0
 32 49  1  0  0  0  0
 33 50  1  0  0  0  0
 33 51  1  0  0  0  0
M  END
$$$$
