@<TRIPOS>MOLECULE
ligand.pdb
 51 53 0 0 0
SMALL
GASTEIGER

@<TRIPOS>ATOM
      1 N           8.1954   -1.0490    2.7109 N.3     1  UNL1       -0.3184
      2 CA          8.4750   -0.5605    1.3360 C.3     1  UNL1        0.1039
      3 HA          8.9599   -1.3801    0.7982 H       1  UNL1        0.0574
      4 C           9.4408    0.6369    1.4202 C.2     1  UNL1        0.3217
      5 O           9.5260    1.3806    2.3870 O.2     1  UNL1       -0.2493
      6 OXT        10.2176    0.7894    0.3251 O.3     1  UNL1       -0.4795
      7 C           7.1404   -0.1786    0.6856 C.3     1  UNL1       -0.0199
      8 C           7.1897    0.3189   -0.7536 C.3     1  UNL1       -0.0230
      9 S           7.9159   -0.7459   -1.9770 S.3     1  UNL1       -0.2533
     10 H           9.2194   -1.0057   -1.8002 H       1  UNL1        0.0821
     11 C           7.6606    0.1383   -3.4917 C.3     1  UNL1       -0.0366
     12 C           6.9867   -2.2651   -2.1220 C.3     1  UNL1        0.0041
     13 C           7.4845   -3.1917   -3.2440 C.3     1  UNL1        0.0970
     14 H           7.3524   -2.6934   -4.2120 H       1  UNL1        0.0631
     15 O           8.8850   -3.5095   -3.1057 O.3     1  UNL1       -0.3472
     16 C           9.0737   -4.7404   -3.8503 C.3     1  UNL1        0.1666
     17 H           9.1695   -4.5069   -4.9169 H       1  UNL1        0.0866
     18 C           7.8360   -5.5824   -3.5341 C.3     1  UNL1        0.1285
     19 H           8.0029   -6.1865   -2.6337 H       1  UNL1        0.0665
     20 C           6.7547   -4.5468   -3.2335 C.3     1  UNL1        0.1121
     21 H           6.3216   -4.7548   -2.2491 H       1  UNL1        0.0647
     22 O           5.6954   -4.5717   -4.1826 O.3     1  UNL1       -0.3865
     23 O           7.4291   -6.4667   -4.5815 O.3     1  UNL1       -0.3847
     24 N          10.3025   -5.3955   -3.4374 N.ar    1  UNL1       -0.2855
     25 C          10.7451   -6.6026   -3.9222 C.ar    1  UNL1        0.1674
     26 N          10.1750   -7.3614   -4.8757 N.ar    1  UNL1       -0.2159
     27 C          10.9014   -8.4859   -5.0801 C.ar    1  UNL1        0.1205
     28 N          12.0138   -8.8934   -4.4381 N.ar    1  UNL1       -0.2188
     29 C          12.5222   -8.1109   -3.4584 C.ar    1  UNL1        0.1472
     30 C          11.8850   -6.8863   -3.1896 C.ar    1  UNL1        0.1473
     31 N          12.1607   -5.8623   -2.3016 N.ar    1  UNL1       -0.2306
     32 C          11.1932   -4.9879   -2.4836 C.ar    1  UNL1        0.1004
     33 N          13.6444   -8.5609   -2.7761 N.pl3   1  UNL1       -0.3413
     34 H1          7.8180   -0.2590    3.2480 H       1  UNL1        0.1190
     35 H2          9.0871   -1.2405    3.1755 H       1  UNL1        0.1190
     36 HXT        10.0648    0.1164   -0.3644 H       1  UNL1        0.2951
     37 H           6.6836    0.6268    1.2790 H       1  UNL1        0.0293
     38 H           6.4493   -1.0293    0.7437 H       1  UNL1        0.0293
     39 H           7.7463    1.2611   -0.8063 H       1  UNL1        0.0360
     40 H           6.1695    0.5314   -1.0912 H       1  UNL1        0.0360
     41 H           8.1669   -0.3893   -4.2997 H       1  UNL1        0.0324
     42 H           8.0824    1.1388   -3.3758 H       1  UNL1        0.0324
     43 H           6.5879    0.2060   -3.6853 H       1  UNL1        0.0324
     44 H           5.9386   -1.9955   -2.2839 H       1  UNL1        0.0385
     45 H           7.0809   -2.7561   -1.1492 H       1  UNL1        0.0385
     46 H           5.6570   -5.4977   -4.5035 H       1  UNL1        0.2100
     47 H           8.2016   -7.0386   -4.7860 H       1  UNL1        0.2101
     48 H          10.5403   -9.1532   -5.8581 H       1  UNL1        0.1048
     49 H          11.0868   -4.0535   -1.9452 H       1  UNL1        0.1030
     50 H          14.1649   -9.2536   -3.2970 H       1  UNL1        0.1438
     51 H          14.1636   -7.8284   -2.3063 H       1  UNL1        0.1438
@<TRIPOS>BOND
     1     1    34    1
     2     1    35    1
     3     2     4    1
     4     2     7    1
     5     2     3    1
     6     2     1    1
     7     4     5    2
     8     4     6    1
     9     6    36    1
    10     7     8    1
    11     7    37    1
    12     7    38    1
    13     8    39    1
    14     8    40    1
    15     9    11    1
    16     9    12    1
    17     9    10    1
    18     9     8    1
    19    11    41    1
    20    11    42    1
    21    11    43    1
    22    12    13    1
    23    12    44    1
    24    12    45    1
    25    13    14    1
    26    13    15    1
    27    13    20    1
    28    15    16    1
    29    16    18    1
    30    16    24    1
    31    16    17    1
    32    18    19    1
    33    18    20    1
    34    18    23    1
    35    20    21    1
    36    20    22    1
    37    22    46    1
    38    23    47    1
    39    24    25   ar
    40    24    32   ar
    41    25    26   ar
    42    25    30   ar
    43    26    27   ar
    44    27    28   ar
    45    27    48    1
    46    28    29   ar
    47    29    30   ar
    48    29    33    1
    49    30    31   ar
    50    31    32   ar
    51    32    49    1
    52    33    50    1
    53    33    51    1
