2L8H_L8H_A_2
  1228              3D

 24 25  0  0  0  0  0  0  0  0999 V2000
    2.3514    2.7332   -0.1814 N   0  0  0  0  0  0  0  0  0  0  0  0
    1.4539    1.6559   -0.0811 C   0  0  0  0  0  0  0  0  0  0  0  0
    0.2651    1.7900    0.6335 C   0  0  0  0  0  0  0  0  0  0  0  0
   -0.5720    0.6863    0.8255 C   0  0  0  0  0  0  0  0  0  0  0  0
   -1.7933    0.9076    1.4340 O   0  0  0  0  0  0  0  0  0  0  0  0
   -1.6456    0.7519    2.8499 C   0  0  0  0  0  0  0  0  0  0  0  0
   -0.2396   -0.5883    0.3220 C   0  0  0  0  0  0  0  0  0  0  0  0
   -1.0578   -1.7230    0.4958 C   0  0  0  0  0  0  0  0  0  0  0  0
   -0.6742   -2.9678   -0.0025 C   0  0  0  0  0  0  0  0  0  0  0  0
    0.5435   -3.1102   -0.6591 C   0  0  0  0  0  0  0  0  0  0  0  0
    1.3760   -2.0042   -0.8274 C   0  0  0  0  0  0  0  0  0  0  0  0
    0.9946   -0.7383   -0.3503 C   0  0  0  0  0  0  0  0  0  0  0  0
    1.8197    0.3850   -0.5415 C   0  0  0  0  0  0  0  0  0  0  0  0
    2.9896    2.6452   -0.9674 H   0  0  0  0  0  0  0  0  0  0  0  0
    1.8904    3.6390   -0.1850 H   0  0  0  0  0  0  0  0  0  0  0  0
    0.0214    2.7302    1.1217 H   0  0  0  0  0  0  0  0  0  0  0  0
   -1.1453   -0.1951    3.0591 H   0  0  0  0  0  0  0  0  0  0  0  0
   -1.0441    1.5758    3.2387 H   0  0  0  0  0  0  0  0  0  0  0  0
   -2.6161    0.7542    3.3742 H   0  0  0  0  0  0  0  0  0  0  0  0
   -2.0062   -1.6419    1.0233 H   0  0  0  0  0  0  0  0  0  0  0  0
   -1.3278   -3.8250    0.1245 H   0  0  0  0  0  0  0  0  0  0  0  0
    0.8440   -4.0816   -1.0412 H   0  0  0  0  0  0  0  0  0  0  0  0
    2.3291   -2.1391   -1.3358 H   0  0  0  0  0  0  0  0  0  0  0  0
    2.7800    0.2599   -1.0382 H   0  0  0  0  0  0  0  0  0  0  0  0
  2  1  1  0  0  0  0
  3  2  1  0  0  0  0
  4  3  2  0  0  0  0
  5  4  1  0  0  0  0
  6  5  1  0  0  0  0
  7  4  1  0  0  0  0
  8  7  1  0  0  0  0
  9  8  2  0  0  0  0
 10  9  1  0  0  0  0
 11 10  2  0  0  0  0
 12 11  1  0  0  0  0
 12  7  2  0  0  0  0
 13 12  1  0  0  0  0
 13  2  2  0  0  0  0
  1 14  1  0  0  0  0
  1 15  1  0  0  0  0
  3 16  1  0  0  0  0
  6 17  1  0  0  0  0
  6 18  1  0  0  0  0
  6 19  1  0  0  0  0
  8 20  1  0  0  0  0
  9 21  1  0  0  0  0
 10 22  1  0  0  0  0
 11 23  1  0  0  0  0
 13 24  1  0  0  0  0
M  END
>  <energy>
57.571967280553451

$$$$
