@<TRIPOS>MOLECULE
2L8H_L8H_A_2
 24 25 0 0 0
SMALL
GASTEIGER

@<TRIPOS>ATOM
      1 N           2.3514    2.7332   -0.1814 N.pl3   1  UNL1       -0.3579
      2 C           1.4539    1.6559   -0.0811 C.ar    1  UNL1        0.0286
      3 C           0.2651    1.7900    0.6335 C.ar    1  UNL1        0.0013
      4 C          -0.5720    0.6863    0.8255 C.ar    1  UNL1        0.1295
      5 O          -1.7933    0.9076    1.4340 O.3     1  UNL1       -0.4944
      6 C          -1.6456    0.7519    2.8499 C.3     1  UNL1        0.0788
      7 C          -0.2396   -0.5883    0.3220 C.ar    1  UNL1        0.0239
      8 C          -1.0578   -1.7230    0.4958 C.ar    1  UNL1       -0.0505
      9 C          -0.6742   -2.9678   -0.0025 C.ar    1  UNL1       -0.0611
     10 C           0.5435   -3.1102   -0.6591 C.ar    1  UNL1       -0.0612
     11 C           1.3760   -2.0042   -0.8274 C.ar    1  UNL1       -0.0539
     12 C           0.9946   -0.7383   -0.3503 C.ar    1  UNL1       -0.0127
     13 C           1.8197    0.3850   -0.5415 C.ar    1  UNL1       -0.0331
     14 H           2.9896    2.6452   -0.9674 H       1  UNL1        0.1423
     15 H           1.8904    3.6390   -0.1850 H       1  UNL1        0.1423
     16 H           0.0214    2.7302    1.1217 H       1  UNL1        0.0673
     17 H          -1.1453   -0.1951    3.0591 H       1  UNL1        0.0660
     18 H          -1.0441    1.5758    3.2387 H       1  UNL1        0.0660
     19 H          -2.6161    0.7542    3.3742 H       1  UNL1        0.0660
     20 H          -2.0062   -1.6419    1.0233 H       1  UNL1        0.0625
     21 H          -1.3278   -3.8250    0.1245 H       1  UNL1        0.0618
     22 H           0.8440   -4.0816   -1.0412 H       1  UNL1        0.0618
     23 H           2.3291   -2.1391   -1.3358 H       1  UNL1        0.0624
     24 H           2.7800    0.2599   -1.0382 H       1  UNL1        0.0642
@<TRIPOS>BOND
     1     2     1    1
     2     3     2   ar
     3     4     3   ar
     4     5     4    1
     5     6     5    1
     6     7     4   ar
     7     8     7   ar
     8     9     8   ar
     9    10     9   ar
    10    11    10   ar
    11    12    11   ar
    12    12     7   ar
    13    13    12   ar
    14    13     2   ar
    15     1    14    1
    16     1    15    1
    17     3    16    1
    18     6    17    1
    19     6    18    1
    20     6    19    1
    21     8    20    1
    22     9    21    1
    23    10    22    1
    24    11    23    1
    25    13    24    1
