@<TRIPOS>MOLECULE
3D2V_PYI_A_84
 27 28 0 0 0
SMALL
GASTEIGER
****
Coordinates from PDB:3D2V:A:84 Model:1 without hydrogens
@<TRIPOS>ATOM
      1 C         -10.1810   17.7540  -23.7320 C.3     1  UNL1        0.0737
      2 C          -8.7300   17.3280  -23.5050 C.ar    1  UNL1        0.1411
      3 N          -8.2140   17.3370  -22.2660 N.ar    1  UNL1       -0.2292
      4 C          -6.9610   16.9740  -22.0470 C.ar    1  UNL1        0.1056
      5 C          -6.1560   16.5740  -23.1080 C.ar    1  UNL1        0.1093
      6 C          -4.7120   16.1560  -22.8250 C.3     1  UNL1        0.3542
      7 N          -4.4230   16.1510  -21.3730 N.ar    1  UNL1       -0.1644
      8 C          -3.7430   17.2280  -20.8030 C.ar    1  UNL1        0.2900
      9 C          -3.4640   17.2230  -19.4430 C.ar    1  UNL1        0.0755
     10 C          -3.8540   16.1480  -18.6550 C.ar    1  UNL1        0.0076
     11 C          -4.5320   15.0660  -19.2050 C.ar    1  UNL1        0.0396
     12 C          -4.9180   13.9230  -18.2590 C.3     1  UNL1        0.0645
     13 C          -4.0660   12.7030  -18.5980 C.3     1  UNL1        0.1540
     14 O          -2.6750   12.9880  -18.4010 O.3     1  UNL1       -0.3135
     15 P          -2.0690   13.1270  -16.9250 P.3     1  UNL1        0.2230
     16 O          -0.5040   13.4610  -16.9500 O.2     1  UNL1       -0.5169
     17 O          -2.8110   14.2550  -16.0220 O.3     1  UNL1       -0.4370
     18 O          -2.3510   11.7070  -16.1680 O.3     1  UNL1       -0.2261
     19 P          -1.2300   10.8060  -15.4580 P.3     1  UNL1        0.5373
     20 O          -0.1480   10.3670  -16.3630 O.2     1  UNL1       -0.2221
     21 O          -2.0210    9.5400  -14.8510 O.3     1  UNL1       -0.1143
     22 O          -0.6410   11.5700  -14.2210 O.3     1  UNL1       -0.1143
     23 C          -4.8090   15.0700  -20.5730 C.ar    1  UNL1        0.1999
     24 C          -5.5510   13.8940  -21.2180 C.3     1  UNL1        0.1075
     25 C          -6.7140   16.5700  -24.3810 C.ar    1  UNL1        0.1750
     26 N          -5.9820   16.1940  -25.4300 N.pl3   1  UNL1       -0.1072
     27 N          -7.9860   16.9480  -24.5530 N.ar    1  UNL1       -0.2128
@<TRIPOS>BOND
     1     1     2    1
     2     2     3   ar
     3     2    27   ar
     4     3     4   ar
     5     4     5   ar
     6     5     6    1
     7     5    25   ar
     8     6     7    1
     9     7     8   ar
    10     7    23   ar
    11     8     9   ar
    12     9    10   ar
    13    10    11   ar
    14    11    12    1
    15    11    23   ar
    16    12    13    1
    17    13    14    1
    18    14    15    1
    19    15    16    2
    20    15    17    1
    21    15    18    1
    22    18    19    1
    23    19    20    2
    24    19    21    1
    25    19    22    1
    26    23    24    1
    27    25    26    1
    28    25    27   ar
