3D2V_PYI_A_84
 OpenBabel10091713573D
Coordinates from PDB:3D2V:A:84 Model:1 without hydrogens
 27 28  0  0  0  0  0  0  0  0999 V2000
  -10.1810   17.7540  -23.7320 C   0  0  0  0  0  0  0  0  0  0  0  0
   -8.7300   17.3280  -23.5050 C   0  0  0  0  0  0  0  0  0  0  0  0
   -8.2140   17.3370  -22.2660 N   0  0  0  0  0  0  0  0  0  0  0  0
   -6.9610   16.9740  -22.0470 C   0  0  0  0  0  0  0  0  0  0  0  0
   -6.1560   16.5740  -23.1080 C   0  0  0  0  0  0  0  0  0  0  0  0
   -4.7120   16.1560  -22.8250 C   0  0  0  0  0  0  0  0  0  0  0  0
   -4.4230   16.1510  -21.3730 N   0  3  0  0  0  0  0  0  0  0  0  0
   -3.7430   17.2280  -20.8030 C   0  0  0  0  0  0  0  0  0  0  0  0
   -3.4640   17.2230  -19.4430 C   0  0  0  0  0  0  0  0  0  0  0  0
   -3.8540   16.1480  -18.6550 C   0  0  0  0  0  0  0  0  0  0  0  0
   -4.5320   15.0660  -19.2050 C   0  0  0  0  0  0  0  0  0  0  0  0
   -4.9180   13.9230  -18.2590 C   0  0  0  0  0  0  0  0  0  0  0  0
   -4.0660   12.7030  -18.5980 C   0  0  0  0  0  0  0  0  0  0  0  0
   -2.6750   12.9880  -18.4010 O   0  0  0  0  0  0  0  0  0  0  0  0
   -2.0690   13.1270  -16.9250 P   0  0  1  0  0  0  0  0  0  0  0  0
   -0.5040   13.4610  -16.9500 O   0  0  0  0  0  0  0  0  0  0  0  0
   -2.8110   14.2550  -16.0220 O   0  0  0  0  0  0  0  0  0  0  0  0
   -2.3510   11.7070  -16.1680 O   0  0  0  0  0  0  0  0  0  0  0  0
   -1.2300   10.8060  -15.4580 P   0  0  0  0  0  0  0  0  0  0  0  0
   -0.1480   10.3670  -16.3630 O   0  0  0  0  0  0  0  0  0  0  0  0
   -2.0210    9.5400  -14.8510 O   0  0  0  0  0  0  0  0  0  0  0  0
   -0.6410   11.5700  -14.2210 O   0  0  0  0  0  0  0  0  0  0  0  0
   -4.8090   15.0700  -20.5730 C   0  0  0  0  0  0  0  0  0  0  0  0
   -5.5510   13.8940  -21.2180 C   0  0  0  0  0  0  0  0  0  0  0  0
   -6.7140   16.5700  -24.3810 C   0  0  0  0  0  0  0  0  0  0  0  0
   -5.9820   16.1940  -25.4300 N   0  0  0  0  0  0  0  0  0  0  0  0
   -7.9860   16.9480  -24.5530 N   0  0  0  0  0  0  0  0  0  0  0  0
  1  2  1  0  0  0  0
  2  3  2  0  0  0  0
  2 27  1  0  0  0  0
  3  4  1  0  0  0  0
  4  5  2  0  0  0  0
  5  6  1  0  0  0  0
  5 25  1  0  0  0  0
  6  7  1  0  0  0  0
  7  8  2  0  0  0  0
  7 23  1  0  0  0  0
  8  9  1  0  0  0  0
  9 10  2  0  0  0  0
 10 11  1  0  0  0  0
 11 12  1  0  0  0  0
 11 23  2  0  0  0  0
 12 13  1  0  0  0  0
 13 14  1  0  0  0  0
 14 15  1  0  0  0  0
 15 16  2  6  0  0  0
 15 17  1  0  0  0  0
 15 18  1  0  0  0  0
 18 19  1  0  0  0  0
 19 20  2  0  0  0  0
 19 21  1  0  0  0  0
 19 22  1  0  0  0  0
 23 24  1  0  0  0  0
 25 26  1  0  0  0  0
 25 27  2  0  0  0  0
A    1
CM2
A    2
C2A
A    3
N1A
A    4
C6A
A    5
C5A
A    6
C7A
A    7
N3
A    8
C2
A    9
C1
A   10
C6
A   11
C5
A   12
CM6
A   13
CM7
A   14
OM7
A   15
PA
A   16
O1A
A   17
O2A
A   18
O3A
A   19
PB
A   20
O1B
A   21
O2B
A   22
O3B
A   23
C4
A   24
CM4
A   25
C4A
A   26
N4A
A   27
N3A
M  CHG  1   7   1
M  END
>  <InstanceId>
3D2V_PYI_A_84

>  <ChemCompId>
PYI

>  <PdbId>
3D2V

>  <ChainId>
A

>  <ResidueNumber>
84

>  <InsertionCode>


>  <Model>
1

>  <AltIds>


>  <MissingHeavyAtoms>
0

>  <ObservedFormula>
C14 N4 O7 P2

>  <Name>
1-[(4-AMINO-2-METHYLPYRIMIDIN-5-YL)METHYL]-3-(2-{[HYDROXY(PHOSPHONOOXY)PHOSPHORYL]OXY}ETHYL)-2-METHYLPYRIDINIUM

>  <SystematicName>
2-[1-[(4-amino-2-methyl-pyrimidin-5-yl)methyl]-2-methyl-pyridin-1-ium-3-yl]ethyl phosphono hydrogen phosphate

>  <Synonyms>
PYRITHIAMIN PYROPHOSPHATE

>  <Type>
NON-POLYMER

>  <Formula>
C14 H21 N4 O7 P2

>  <MolecularWeight>
419.287

>  <ModifiedDate>
2011-06-04

>  <Parent>


>  <OneLetterCode>


>  <SubcomponentList>


>  <AmbiguousFlag>
N

>  <InChI>
InChI=1S/C14H20N4O7P2/c1-10-12(5-7-24-27(22,23)25-26(19,20)21)4-3-6-18(10)9-13-8-16-11(2)17-14(13)15/h3-4,6,8H,5,7,9H2,1-2H3,(H4-,15,16,17,19,20,21,22,23)/p+1

>  <InChIKey>
ZHKSTKOYQKNDSJ-UHFFFAOYSA-O

>  <SMILES>
Cc1c(ccc[n+]1Cc2cnc(nc2N)C)CCO[P@@](=O)(O)OP(=O)(O)O

$$$$
