REMARK  8 active torsions:
REMARK  status: ('A' for Active; 'I' for Inactive)
REMARK    1  A    between atoms: C_5  and  C_6 
REMARK    2  A    between atoms: C_6  and  N_7 
REMARK    3  A    between atoms: C_11  and  C_12 
REMARK    4  A    between atoms: C_12  and  C_13 
REMARK    5  A    between atoms: C_13  and  O_14 
REMARK    6  A    between atoms: O_14  and  P_15 
REMARK    7  A    between atoms: P_15  and  O_18 
REMARK    8  A    between atoms: O_18  and  P_19 
ROOT
ATOM      1  N   UNL d   1      -4.423  16.151 -21.373  0.00  0.00    -0.326 N 
ATOM      2  C   UNL d   1      -3.743  17.228 -20.803  0.00  0.00     0.076 A 
ATOM      3  C   UNL d   1      -3.464  17.223 -19.443  0.00  0.00     0.018 A 
ATOM      4  C   UNL d   1      -3.854  16.148 -18.655  0.00  0.00    -0.002 A 
ATOM      5  C   UNL d   1      -4.532  15.066 -19.205  0.00  0.00    -0.008 A 
ATOM      6  C   UNL d   1      -4.809  15.070 -20.573  0.00  0.00     0.034 A 
ATOM      7  C   UNL d   1      -5.551  13.894 -21.218  0.00  0.00     0.050 C 
ENDROOT
BRANCH   5   8
ATOM      8  C   UNL d   1      -4.918  13.923 -18.259  0.00  0.00     0.060 C 
BRANCH   8   9
ATOM      9  C   UNL d   1      -4.066  12.703 -18.598  0.00  0.00     0.159 C 
BRANCH   9  10
ATOM     10  O   UNL d   1      -2.675  12.988 -18.401  0.00  0.00    -0.270 OA
BRANCH  10  11
ATOM     11  P   UNL d   1      -2.069  13.127 -16.925  0.00  0.00     0.419 P 
ATOM     12  O   UNL d   1      -0.504  13.461 -16.950  0.00  0.00    -0.624 OA
ATOM     13  O   UNL d   1      -2.811  14.255 -16.022  0.00  0.00    -0.624 OA
BRANCH  11  14
ATOM     14  O   UNL d   1      -2.351  11.707 -16.168  0.00  0.00    -0.173 OA
BRANCH  14  15
ATOM     15  P   UNL d   1      -1.230  10.806 -15.458  0.00  0.00     0.431 P 
ATOM     16  O   UNL d   1      -0.148  10.367 -16.363  0.00  0.00    -0.616 OA
ATOM     17  O   UNL d   1      -2.021   9.540 -14.851  0.00  0.00    -0.616 OA
ATOM     18  O   UNL d   1      -0.641  11.570 -14.221  0.00  0.00    -0.616 OA
ENDBRANCH  14  15
ENDBRANCH  11  14
ENDBRANCH  10  11
ENDBRANCH   9  10
ENDBRANCH   8   9
ENDBRANCH   5   8
BRANCH   1  19
ATOM     19  C   UNL d   1      -4.712  16.156 -22.825  0.00  0.00     0.137 C 
BRANCH  19  20
ATOM     20  C   UNL d   1      -6.156  16.574 -23.108  0.00  0.00     0.057 A 
ATOM     21  C   UNL d   1      -6.961  16.974 -22.047  0.00  0.00     0.101 A 
ATOM     22  N   UNL d   1      -8.214  17.337 -22.266  0.00  0.00    -0.230 NA
ATOM     23  C   UNL d   1      -8.730  17.328 -23.505  0.00  0.00     0.141 A 
ATOM     24  C   UNL d   1     -10.181  17.754 -23.732  0.00  0.00     0.074 C 
ATOM     25  N   UNL d   1      -7.986  16.948 -24.553  0.00  0.00    -0.211 NA
ATOM     26  C   UNL d   1      -6.714  16.570 -24.381  0.00  0.00     0.184 A 
ATOM     27  N   UNL d   1      -5.982  16.194 -25.430  0.00  0.00    -0.127 N 
ENDBRANCH  19  20
ENDBRANCH   1  19
TORSDOF 8
