3D2V_PYI_A_84
 OpenBabel10091713573D
Coordinates from PDB:3D2V:A:84 Model:1 without hydrogens
 48 49  0  0  0  0  0  0  0  0999 V2000
  -10.1810   17.7540  -23.7320 C   0  0  0  0  0  0  0  0  0  0  0  0
   -8.7300   17.3280  -23.5050 C   0  0  0  0  0  0  0  0  0  0  0  0
   -8.2140   17.3370  -22.2660 N   0  0  0  0  0  0  0  0  0  0  0  0
   -6.9610   16.9740  -22.0470 C   0  0  0  0  0  0  0  0  0  0  0  0
   -6.1560   16.5740  -23.1080 C   0  0  0  0  0  0  0  0  0  0  0  0
   -4.7120   16.1560  -22.8250 C   0  0  0  0  0  0  0  0  0  0  0  0
   -4.4230   16.1510  -21.3730 N   0  0  0  0  0  0  0  0  0  0  0  0
   -3.7430   17.2280  -20.8030 C   0  0  0  0  0  3  0  0  0  0  0  0
   -3.4640   17.2230  -19.4430 C   0  0  0  0  0  0  0  0  0  0  0  0
   -3.8540   16.1480  -18.6550 C   0  0  0  0  0  0  0  0  0  0  0  0
   -4.5320   15.0660  -19.2050 C   0  0  0  0  0  0  0  0  0  0  0  0
   -4.9180   13.9230  -18.2590 C   0  0  0  0  0  0  0  0  0  0  0  0
   -4.0660   12.7030  -18.5980 C   0  0  0  0  0  0  0  0  0  0  0  0
   -2.6750   12.9880  -18.4010 O   0  0  0  0  0  0  0  0  0  0  0  0
   -2.0690   13.1270  -16.9250 P   0  0  1  0  0  0  0  0  0  0  0  0
   -0.5040   13.4610  -16.9500 O   0  0  0  0  0  0  0  0  0  0  0  0
   -2.8110   14.2550  -16.0220 O   0  0  0  0  0  0  0  0  0  0  0  0
   -2.3510   11.7070  -16.1680 O   0  0  0  0  0  0  0  0  0  0  0  0
   -1.2300   10.8060  -15.4580 P   0  0  0  0  0  0  0  0  0  0  0  0
   -0.1480   10.3670  -16.3630 O   0  0  0  0  0  0  0  0  0  0  0  0
   -2.0210    9.5400  -14.8510 O   0  0  0  0  0  0  0  0  0  0  0  0
   -0.6410   11.5700  -14.2210 O   0  0  0  0  0  0  0  0  0  0  0  0
   -4.8090   15.0700  -20.5730 C   0  0  0  0  0  0  0  0  0  0  0  0
   -5.5510   13.8940  -21.2180 C   0  0  0  0  0  0  0  0  0  0  0  0
   -6.7140   16.5700  -24.3810 C   0  0  0  0  0  0  0  0  0  0  0  0
   -5.9820   16.1940  -25.4300 N   0  0  0  0  0  0  0  0  0  0  0  0
   -7.9860   16.9480  -24.5530 N   0  0  0  0  0  0  0  0  0  0  0  0
  -10.6241   18.0236  -22.7961 H   0  0  0  0  0  0  0  0  0  0  0  0
  -10.7275   16.9422  -24.1647 H   0  0  0  0  0  0  0  0  0  0  0  0
  -10.2066   18.5943  -24.3940 H   0  0  0  0  0  0  0  0  0  0  0  0
   -6.5805   16.9877  -21.0878 H   0  0  0  0  0  0  0  0  0  0  0  0
   -4.0499   16.8433  -23.3089 H   0  0  0  0  0  0  0  0  0  0  0  0
   -4.5705   15.1634  -23.1988 H   0  0  0  0  0  0  0  0  0  0  0  0
   -3.4489   18.0245  -21.3896 H   0  0  0  0  0  0  0  0  0  0  0  0
   -2.9657   18.0199  -19.0167 H   0  0  0  0  0  0  0  0  0  0  0  0
   -3.6373   16.1524  -17.6460 H   0  0  0  0  0  0  0  0  0  0  0  0
   -5.9538   13.6856  -18.3841 H   0  0  0  0  0  0  0  0  0  0  0  0
   -4.7502   14.2158  -17.2436 H   0  0  0  0  0  0  0  0  0  0  0  0
   -4.2283   12.4340  -19.6208 H   0  0  0  0  0  0  0  0  0  0  0  0
   -4.3473   11.8963  -17.9538 H   0  0  0  0  0  0  0  0  0  0  0  0
   -2.6791   15.1283  -16.4229 H   0  0  0  0  0  0  0  0  0  0  0  0
   -2.4105    9.0248  -15.5747 H   0  0  0  0  0  0  0  0  0  0  0  0
   -0.1496   12.3488  -14.5259 H   0  0  0  0  0  0  0  0  0  0  0  0
   -5.6691   14.0781  -22.2654 H   0  0  0  0  0  0  0  0  0  0  0  0
   -6.5139   13.7875  -20.7638 H   0  0  0  0  0  0  0  0  0  0  0  0
   -4.9879   12.9954  -21.0751 H   0  0  0  0  0  0  0  0  0  0  0  0
   -5.0462   15.9160  -25.3030 H   0  0  0  0  0  0  0  0  0  0  0  0
   -6.3773   16.1944  -26.3316 H   0  0  0  0  0  0  0  0  0  0  0  0
  1  2  1  0  0  0  0
  1 28  1  0  0  0  0
  1 29  1  0  0  0  0
  1 30  1  0  0  0  0
  2  3  2  0  0  0  0
  2 27  1  0  0  0  0
  3  4  1  0  0  0  0
  4  5  2  0  0  0  0
  4 31  1  0  0  0  0
  5  6  1  0  0  0  0
  5 25  1  0  0  0  0
  6  7  1  0  0  0  0
  6 32  1  0  0  0  0
  6 33  1  0  0  0  0
  7  8  1  0  0  0  0
  7 23  1  0  0  0  0
  8  9  1  0  0  0  0
  8 34  1  0  0  0  0
  9 10  2  0  0  0  0
  9 35  1  0  0  0  0
 10 11  1  0  0  0  0
 10 36  1  0  0  0  0
 11 12  1  0  0  0  0
 11 23  2  0  0  0  0
 12 13  1  0  0  0  0
 12 37  1  0  0  0  0
 12 38  1  0  0  0  0
 13 14  1  0  0  0  0
 13 39  1  0  0  0  0
 13 40  1  0  0  0  0
 14 15  1  0  0  0  0
 15 16  2  6  0  0  0
 15 17  1  0  0  0  0
 15 18  1  0  0  0  0
 17 41  1  0  0  0  0
 18 19  1  0  0  0  0
 19 20  2  0  0  0  0
 19 21  1  0  0  0  0
 19 22  1  0  0  0  0
 21 42  1  0  0  0  0
 22 43  1  0  0  0  0
 23 24  1  0  0  0  0
 24 44  1  0  0  0  0
 24 45  1  0  0  0  0
 24 46  1  0  0  0  0
 25 26  1  0  0  0  0
 25 27  2  0  0  0  0
 26 47  1  0  0  0  0
 26 48  1  0  0  0  0
M  END
$$$$
