2BE0_JS5_A_50
 OpenBabel10281720493D
Coordinates from PDB:2BE0:A:50 Model:1 without hydrogens
113117  0  0  0  0  0  0  0  0999 V2000
   27.1310   25.1960    7.6310 C   0  0  2  0  0  0  0  0  0  0  0  0
   26.1480   26.1280    7.9860 O   0  0  0  0  0  0  0  0  0  0  0  0
   26.9490   23.8660    8.4680 C   0  0  2  0  0  0  0  0  0  0  0  0
   25.5850   23.3650    8.2960 N   0  0  0  0  0  0  0  0  0  0  0  0
   27.2880   24.1470   10.0090 C   0  0  1  0  0  0  0  0  0  0  0  0
   27.1110   22.9440   10.7490 O   0  0  0  0  0  0  0  0  0  0  0  0
   28.7510   24.6690   10.1020 C   0  0  2  0  0  0  0  0  0  0  0  0
   29.1230   24.9540   11.5080 O   0  0  0  0  0  0  0  0  0  0  0  0
   28.9200   25.9920    9.2550 C   0  0  2  0  0  0  0  0  0  0  0  0
   28.5330   25.6530    7.8930 O   0  0  0  0  0  0  0  0  0  0  0  0
   30.3260   26.4200    9.3620 C   0  0  0  0  0  0  0  0  0  0  0  0
   30.5140   27.5440    8.6600 O   0  0  0  0  0  0  0  0  0  0  0  0
   24.1130   29.6200    6.2630 C   0  0  2  0  0  0  0  0  0  0  0  0
   23.8860   30.8430    5.4470 N   0  0  0  0  0  0  0  0  0  0  0  0
   25.4060   29.8330    7.1720 C   0  0  0  0  0  0  0  0  0  0  0  0
   25.6960   28.5110    8.0820 C   0  0  2  0  0  0  0  0  0  0  0  0
   26.8560   28.6880    8.9060 N   0  0  0  0  0  0  0  0  0  0  0  0
   25.9020   27.2540    7.1560 C   0  0  2  0  0  0  0  0  0  0  0  0
   24.6140   27.0940    6.2780 C   0  0  2  0  0  0  0  0  0  0  0  0
   24.9010   25.9340    5.5130 O   0  0  0  0  0  0  0  0  0  0  0  0
   24.3840   28.3800    5.3740 C   0  0  1  0  0  0  0  0  0  0  0  0
   23.2370   28.2280    4.6050 O   0  0  0  0  0  0  0  0  0  0  0  0
   23.8730   24.9740    5.2870 C   0  0  2  0  0  0  0  0  0  0  0  0
   24.2170   23.6840    5.8180 O   0  0  0  0  0  0  0  0  0  0  0  0
   23.6080   24.7760    3.7930 C   0  0  2  0  0  0  0  0  0  0  0  0
   22.1750   24.3260    3.7710 O   0  0  0  0  0  0  0  0  0  0  0  0
   24.7590   23.7880    3.5050 C   0  0  2  0  0  0  0  0  0  0  0  0
   24.7100   23.0720    2.2840 O   0  0  0  0  0  0  0  0  0  0  0  0
   24.7740   22.8850    4.7540 C   0  0  1  0  0  0  0  0  0  0  0  0
   26.1890   22.4910    5.1990 C   0  0  0  0  0  0  0  0  0  0  0  0
   27.2530   23.0330    4.4490 O   0  0  0  0  0  0  0  0  0  0  0  0
   21.6210   22.9770    3.5000 C   0  0  0  0  0  0  0  0  0  0  0  0
   20.0880   23.0520    3.6340 C   0  0  0  0  0  0  0  0  0  0  0  0
   19.6500   22.2840    4.8530 N   0  0  0  0  0  0  0  0  0  0  0  0
   18.1440   22.3700    5.2300 C   0  0  0  0  0  0  0  0  0  0  0  0
   17.5060   20.9470    5.6560 C   0  0  2  0  0  0  0  0  0  0  0  0
   16.0880   20.8870    5.8800 C   0  0  0  0  0  0  0  0  0  0  0  0
   15.4750   19.6560    6.2580 N   0  0  0  0  0  0  0  0  0  0  0  0
   16.2070   18.4470    6.4310 C   0  0  0  0  0  0  0  0  0  0  0  0
   17.6130   18.4430    6.2250 C   0  0  0  0  0  0  0  0  0  0  0  0
   18.3010   19.7030    5.8300 C   0  0  0  0  0  0  0  0  0  0  0  0
   25.8010   23.1510    1.3490 C   0  0  2  0  0  0  0  0  0  0  0  0
   25.1580   22.9820   -0.1260 C   0  0  2  0  0  0  0  0  0  0  0  0
   24.4620   21.6590   -0.1940 N   0  0  0  0  0  0  0  0  0  0  0  0
   26.3140   23.0570   -1.1640 C   0  0  1  0  0  0  0  0  0  0  0  0
   26.8940   24.3950   -0.9840 O   0  0  0  0  0  0  0  0  0  0  0  0
   27.4040   21.8800   -0.8720 C   0  0  2  0  0  0  0  0  0  0  0  0
   26.8340   20.5360   -1.0520 O   0  0  0  0  0  0  0  0  0  0  0  0
   27.9620   22.0280    0.6150 C   0  0  1  0  0  0  0  0  0  0  0  0
   26.7890   22.0100    1.5750 O   0  0  0  0  0  0  0  0  0  0  0  0
   28.9720   20.8630    0.8350 C   0  0  0  0  0  0  0  0  0  0  0  0
   29.5330   20.9210    2.1620 N   0  0  0  0  0  0  0  0  0  0  0  0
   27.0001   25.0532    6.5787 H   0  0  0  0  0  0  0  0  0  0  0  0
   27.6247   23.1144    8.1167 H   0  0  0  0  0  0  0  0  0  0  0  0
   24.9212   24.0662    8.6249 H   0  0  0  0  0  0  0  0  0  0  0  0
   25.4676   22.5067    8.8345 H   0  0  0  0  0  0  0  0  0  0  0  0
   26.6349   24.8873   10.4217 H   0  0  0  0  0  0  0  0  0  0  0  0
   27.6944   22.2561   10.3922 H   0  0  0  0  0  0  0  0  0  0  0  0
   29.3917   23.9050    9.7137 H   0  0  0  0  0  0  0  0  0  0  0  0
   28.5432   25.6465   11.8619 H   0  0  0  0  0  0  0  0  0  0  0  0
   28.3137   26.8052    9.5958 H   0  0  0  0  0  0  0  0  0  0  0  0
   30.9616   25.6503    8.9766 H   0  0  0  0  0  0  0  0  0  0  0  0
   30.5618   26.6025   10.3896 H   0  0  0  0  0  0  0  0  0  0  0  0
   30.3011   27.3823    7.7276 H   0  0  0  0  0  0  0  0  0  0  0  0
   23.2318   29.4555    6.8472 H   0  0  0  0  0  0  0  0  0  0  0  0
   24.7106   31.0287    4.8761 H   0  0  0  0  0  0  0  0  0  0  0  0
   23.7142   31.6366    6.0643 H   0  0  0  0  0  0  0  0  0  0  0  0
   25.2488   30.6740    7.8146 H   0  0  0  0  0  0  0  0  0  0  0  0
   26.2491   30.0040    6.5357 H   0  0  0  0  0  0  0  0  0  0  0  0
   24.8485   28.3599    8.7174 H   0  0  0  0  0  0  0  0  0  0  0  0
   27.6742   28.8335    8.3146 H   0  0  0  0  0  0  0  0  0  0  0  0
   26.9951   27.8566    9.4804 H   0  0  0  0  0  0  0  0  0  0  0  0
   26.7396   27.3579    6.4983 H   0  0  0  0  0  0  0  0  0  0  0  0
   23.7095   26.9973    6.8415 H   0  0  0  0  0  0  0  0  0  0  0  0
   25.2596   28.5015    4.7711 H   0  0  0  0  0  0  0  0  0  0  0  0
   22.4689   28.1212    5.1877 H   0  0  0  0  0  0  0  0  0  0  0  0
   23.0065   25.3626    5.7799 H   0  0  0  0  0  0  0  0  0  0  0  0
   23.6417   25.5487    3.0536 H   0  0  0  0  0  0  0  0  0  0  0  0
   25.6718   24.3230    3.3453 H   0  0  0  0  0  0  0  0  0  0  0  0
   24.2382   21.9856    4.5328 H   0  0  0  0  0  0  0  0  0  0  0  0
   26.2625   21.4249    5.1459 H   0  0  0  0  0  0  0  0  0  0  0  0
   26.3006   22.8928    6.1844 H   0  0  0  0  0  0  0  0  0  0  0  0
   27.2070   22.7037    3.5378 H   0  0  0  0  0  0  0  0  0  0  0  0
   22.0127   22.2756    4.2067 H   0  0  0  0  0  0  0  0  0  0  0  0
   21.8913   22.6567    2.5155 H   0  0  0  0  0  0  0  0  0  0  0  0
   19.6331   22.6279    2.7633 H   0  0  0  0  0  0  0  0  0  0  0  0
   19.7892   24.0748    3.7317 H   0  0  0  0  0  0  0  0  0  0  0  0
   20.1875   22.6320    5.6470 H   0  0  0  0  0  0  0  0  0  0  0  0
   17.6039   22.7446    4.3856 H   0  0  0  0  0  0  0  0  0  0  0  0
   18.0675   23.0170    6.0788 H   0  0  0  0  0  0  0  0  0  0  0  0
   18.5614   20.9169    5.4827 H   0  0  0  0  0  0  0  0  0  0  0  0
   15.6186   21.1987    4.9704 H   0  0  0  0  0  0  0  0  0  0  0  0
   15.9501   21.5043    6.7430 H   0  0  0  0  0  0  0  0  0  0  0  0
   14.7736   19.4602    5.5438 H   0  0  0  0  0  0  0  0  0  0  0  0
   15.7913   17.7320    5.7521 H   0  0  0  0  0  0  0  0  0  0  0  0
   16.1063   18.2405    7.4760 H   0  0  0  0  0  0  0  0  0  0  0  0
   17.8127   17.7256    5.4566 H   0  0  0  0  0  0  0  0  0  0  0  0
   18.0083   18.2358    7.1975 H   0  0  0  0  0  0  0  0  0  0  0  0
   19.0354   19.9054    6.5814 H   0  0  0  0  0  0  0  0  0  0  0  0
   18.6609   19.4946    4.8441 H   0  0  0  0  0  0  0  0  0  0  0  0
   26.3209   24.0789    1.4655 H   0  0  0  0  0  0  0  0  0  0  0  0
   24.4461   23.7528   -0.3356 H   0  0  0  0  0  0  0  0  0  0  0  0
   25.1292   20.9133    0.0040 H   0  0  0  0  0  0  0  0  0  0  0  0
   24.0721   21.5275   -1.1273 H   0  0  0  0  0  0  0  0  0  0  0  0
   25.9816   22.9110   -2.1705 H   0  0  0  0  0  0  0  0  0  0  0  0
   27.1862   24.4998   -0.0650 H   0  0  0  0  0  0  0  0  0  0  0  0
   28.1977   21.9914   -1.5809 H   0  0  0  0  0  0  0  0  0  0  0  0
   26.1093   20.4049   -0.4207 H   0  0  0  0  0  0  0  0  0  0  0  0
   28.4762   22.9507    0.7856 H   0  0  0  0  0  0  0  0  0  0  0  0
   29.7607   20.9410    0.1161 H   0  0  0  0  0  0  0  0  0  0  0  0
   28.4560   19.9328    0.7192 H   0  0  0  0  0  0  0  0  0  0  0  0
   30.0278   21.8046    2.2836 H   0  0  0  0  0  0  0  0  0  0  0  0
   30.1840   20.1463    2.2901 H   0  0  0  0  0  0  0  0  0  0  0  0
  1  2  1  0  0  0  0
  1  3  1  0  0  0  0
  1 10  1  0  0  0  0
  1 53  1  6  0  0  0
  3  4  1  0  0  0  0
  3  5  1  0  0  0  0
  3 54  1  6  0  0  0
  4 55  1  0  0  0  0
  4 56  1  0  0  0  0
  5  6  1  0  0  0  0
  5  7  1  0  0  0  0
  5 57  1  1  0  0  0
  6 58  1  0  0  0  0
  7  8  1  0  0  0  0
  7  9  1  0  0  0  0
  7 59  1  6  0  0  0
  8 60  1  0  0  0  0
  9 10  1  0  0  0  0
  9 11  1  0  0  0  0
  9 61  1  1  0  0  0
 11 12  1  0  0  0  0
 11 62  1  0  0  0  0
 11 63  1  0  0  0  0
 12 64  1  0  0  0  0
 13 14  1  0  0  0  0
 13 15  1  0  0  0  0
 13 21  1  0  0  0  0
 13 65  1  1  0  0  0
 14 66  1  0  0  0  0
 14 67  1  0  0  0  0
 15 16  1  0  0  0  0
 15 68  1  0  0  0  0
 15 69  1  0  0  0  0
 16 17  1  0  0  0  0
 16 18  1  0  0  0  0
 16 70  1  1  0  0  0
 17 71  1  0  0  0  0
 17 72  1  0  0  0  0
 18  2  1  0  0  0  0
 18 19  1  0  0  0  0
 18 73  1  6  0  0  0
 19 20  1  0  0  0  0
 19 21  1  0  0  0  0
 19 74  1  1  0  0  0
 21 22  1  0  0  0  0
 21 75  1  6  0  0  0
 22 76  1  0  0  0  0
 23 20  1  0  0  0  0
 23 24  1  0  0  0  0
 23 25  1  0  0  0  0
 23 77  1  1  0  0  0
 24 29  1  0  0  0  0
 25 26  1  0  0  0  0
 25 27  1  0  0  0  0
 25 78  1  6  0  0  0
 26 32  1  0  0  0  0
 27 28  1  0  0  0  0
 27 29  1  0  0  0  0
 27 79  1  1  0  0  0
 29 30  1  0  0  0  0
 29 80  1  6  0  0  0
 30 31  1  0  0  0  0
 30 81  1  0  0  0  0
 30 82  1  0  0  0  0
 31 83  1  0  0  0  0
 32 33  1  0  0  0  0
 32 84  1  0  0  0  0
 32 85  1  0  0  0  0
 33 34  1  0  0  0  0
 33 86  1  0  0  0  0
 33 87  1  0  0  0  0
 34 35  1  0  0  0  0
 34 88  1  0  0  0  0
 35 89  1  0  0  0  0
 35 90  1  0  0  0  0
 36 35  1  0  0  0  0
 36 37  1  0  0  0  0
 36 41  1  0  0  0  0
 36 91  1  6  0  0  0
 37 38  1  0  0  0  0
 37 92  1  0  0  0  0
 37 93  1  0  0  0  0
 38 39  1  0  0  0  0
 38 94  1  0  0  0  0
 39 40  1  0  0  0  0
 39 95  1  0  0  0  0
 39 96  1  0  0  0  0
 40 41  1  0  0  0  0
 40 97  1  0  0  0  0
 40 98  1  0  0  0  0
 41 99  1  0  0  0  0
 41100  1  0  0  0  0
 42 28  1  0  0  0  0
 42 43  1  0  0  0  0
 42 50  1  0  0  0  0
 42101  1  1  0  0  0
 43 44  1  0  0  0  0
 43 45  1  0  0  0  0
 43102  1  6  0  0  0
 44103  1  0  0  0  0
 44104  1  0  0  0  0
 45 46  1  0  0  0  0
 45 47  1  0  0  0  0
 45105  1  6  0  0  0
 46106  1  0  0  0  0
 47 48  1  0  0  0  0
 47 49  1  0  0  0  0
 47107  1  6  0  0  0
 48108  1  0  0  0  0
 49 50  1  0  0  0  0
 49 51  1  0  0  0  0
 49109  1  1  0  0  0
 51 52  1  0  0  0  0
 51110  1  0  0  0  0
 51111  1  0  0  0  0
 52112  1  0  0  0  0
 52113  1  0  0  0  0
A    1
C11
A    2
O11
A    3
C21
A    4
N21
A    5
C31
A    6
O31
A    7
C41
A    8
O41
A    9
C51
A   10
O51
A   11
C61
A   12
O61
A   13
C12
A   14
N12
A   15
C22
A   16
C32
A   17
N32
A   18
C42
A   19
C52
A   20
O52
A   21
C62
A   22
O62
A   23
C13
A   24
O13
A   25
C23
A   26
O23
A   27
C33
A   28
O33
A   29
C43
A   30
C53
A   31
O53
A   32
C63
A   33
C73
A   34
N73
A   35
C83
A   36
C15
A   37
C25
A   38
N25
A   39
C35
A   40
C45
A   41
C55
A   42
C14
A   43
C24
A   44
N24
A   45
C34
A   46
O34
A   47
C44
A   48
O44
A   49
C54
A   50
O54
A   51
C64
A   52
N64
M  END
>  <InstanceId>
2BE0_JS5_A_50

>  <ChemCompId>
JS5

>  <PdbId>
2BE0

>  <ChainId>
A

>  <ResidueNumber>
50

>  <InsertionCode>


>  <Model>
1

>  <AltIds>


>  <MissingHeavyAtoms>
0

>  <ObservedFormula>
C31 N7 O14

>  <Name>
(2S,3S,4R,5R,6R)-5-AMINO-2-(AMINOMETHYL)-6-((2R,3R,4R,5S)-5-((1R,2R,3S,5R,6S)-3,5-DIAMINO-2-((2S,3R,4R,5S,6R)-3-AMINO-4,5-DIHYDROXY-6-(HYDROXYMETHYL)-TETRAHYDRO-2H-PYRAN-2-YLOXY)-6-HYDROXYCYCLOHEXYLOXY)-2-(HYDROXYMETHYL)-4-(2-((R)-PIPERIDIN-3-YLMETHYLAMINO)ETHOXY)-TETRAHYDROFURAN-3-YLOXY)-TETRAHYDRO-2H-PYRAN-3,4-DIOL

>  <SystematicName>
(2R,3S,4R,5R,6S)-5-amino-6-[(1R,2R,3S,4R,6S)-4,6-diamino-2-[(2S,3R,4R,5R)-4-[(2R,3R,4R,5S,6S)-3-amino-6-(aminomethyl)-4,5-dihydroxy-oxan-2-yl]oxy-5-(hydroxymethyl)-3-[2-(piperidin-3-ylmethylamino)ethoxy]oxolan-2-yl]oxy-3-hydroxy-cyclohexyl]oxy-2-(hydroxymethyl)oxane-3,4-diol

>  <Synonyms>
2"-O-[N-(3-(AMINOMETHYL)-PYRIDINE)-2-AMINOETHYL]PAROMOMYCIN; O-2-AMINO-2-DEOXY-ALPHA-D-GLUCOPYRANOSYL-(1,4)-O-[O-2,6-DIAMINO-2,6-DIDEOXY-BETA-L-IDOPYRANOSYL-(1,3)-BETA-D-2-O-(3-ETHYLAMINOMETHYL)-PYRIDYL-(1,5)]-2-DEOXY-D-STREPTAMINE

>  <Type>
NON-POLYMER

>  <Formula>
C31 H61 N7 O14

>  <MolecularWeight>
755.855

>  <ModifiedDate>
2011-06-04

>  <Parent>


>  <OneLetterCode>


>  <SubcomponentList>


>  <AmbiguousFlag>
N

>  <InChI>
InChI=1S/C31H61N7O14/c32-7-15-21(42)23(44)18(35)29(47-15)51-26-17(11-40)49-31(28(26)46-5-4-38-9-12-2-1-3-37-8-12)52-27-20(41)13(33)6-14(34)25(27)50-30-19(36)24(45)22(43)16(10-39)48-30/h12-31,37-45H,1-11,32-36H2/t12?,13-,14+,15+,16-,17-,18-,19-,20+,21-,22-,23-,24-,25-,26-,27-,28-,29-,30-,31+/m1/s1

>  <InChIKey>
AHJDGUQMOYBKDU-NSCPTEJBSA-N

>  <SMILES>
C1CC(CNC1)CNCCO[C@@H]2[C@@H]([C@H](O[C@H]2O[C@@H]3[C@H]([C@@H](C[C@@H]([C@H]3O[C@@H]4[C@@H]([C@H]([C@@H]([C@H](O4)CO)O)O)N)N)N)O)CO)O[C@@H]5[C@@H]([C@H]([C@@H]([C@@H](O5)CN)O)O)N

$$$$
