@<TRIPOS>MOLECULE
2BE0_JS5_A_50
 52 56 0 0 0
SMALL
GASTEIGER
****
Coordinates from PDB:2BE0:A:50 Model:1 without hydrogens
@<TRIPOS>ATOM
      1 C          27.1310   25.1960    7.6310 C.3     1  UNL1        0.2561
      2 O          26.1480   26.1280    7.9860 O.3     1  UNL1       -0.3278
      3 C          26.9490   23.8660    8.4680 C.3     1  UNL1        0.1807
      4 N          25.5850   23.3650    8.2960 N.3     1  UNL1       -0.1248
      5 C          27.2880   24.1470   10.0090 C.3     1  UNL1        0.2070
      6 O          27.1110   22.9440   10.7490 O.3     1  UNL1       -0.2186
      7 C          28.7510   24.6690   10.1020 C.3     1  UNL1        0.2133
      8 O          29.1230   24.9540   11.5080 O.3     1  UNL1       -0.2176
      9 C          28.9200   25.9920    9.2550 C.3     1  UNL1        0.1834
     10 O          28.5330   25.6530    7.8930 O.3     1  UNL1       -0.3264
     11 C          30.3260   26.4200    9.3620 C.3     1  UNL1        0.2142
     12 O          30.5140   27.5440    8.6600 O.3     1  UNL1       -0.2176
     13 C          24.1130   29.6200    6.2630 C.3     1  UNL1        0.1261
     14 N          23.8860   30.8430    5.4470 N.3     1  UNL1       -0.1301
     15 C          25.4060   29.8330    7.1720 C.3     1  UNL1        0.0433
     16 C          25.6960   28.5110    8.0820 C.3     1  UNL1        0.1230
     17 N          26.8560   28.6880    8.9060 N.3     1  UNL1       -0.1302
     18 C          25.9020   27.2540    7.1560 C.3     1  UNL1        0.1649
     19 C          24.6140   27.0940    6.2780 C.3     1  UNL1        0.1779
     20 O          24.9010   25.9340    5.5130 O.3     1  UNL1       -0.3259
     21 C          24.3840   28.3800    5.3740 C.3     1  UNL1        0.1989
     22 O          23.2370   28.2280    4.6050 O.3     1  UNL1       -0.2189
     23 C          23.8730   24.9740    5.2870 C.3     1  UNL1        0.2661
     24 O          24.2170   23.6840    5.8180 O.3     1  UNL1       -0.3258
     25 C          23.6080   24.7760    3.7930 C.3     1  UNL1        0.2008
     26 O          22.1750   24.3260    3.7710 O.3     1  UNL1       -0.3470
     27 C          24.7590   23.7880    3.5050 C.3     1  UNL1        0.1795
     28 O          24.7100   23.0720    2.2840 O.3     1  UNL1       -0.3266
     29 C          24.7740   22.8850    4.7540 C.3     1  UNL1        0.1803
     30 C          26.1890   22.4910    5.1990 C.3     1  UNL1        0.2141
     31 O          27.2530   23.0330    4.4490 O.3     1  UNL1       -0.2176
     32 C          21.6210   22.9770    3.5000 C.3     1  UNL1        0.1611
     33 C          20.0880   23.0520    3.6340 C.3     1  UNL1        0.1207
     34 N          19.6500   22.2840    4.8530 N.3     1  UNL1       -0.2154
     35 C          18.1440   22.3700    5.2300 C.3     1  UNL1        0.0902
     36 C          17.5060   20.9470    5.6560 C.3     1  UNL1        0.0349
     37 C          16.0880   20.8870    5.8800 C.3     1  UNL1        0.0901
     38 N          15.4750   19.6560    6.2580 N.3     1  UNL1       -0.2180
     39 C          16.2070   18.4470    6.4310 C.3     1  UNL1        0.0887
     40 C          17.6130   18.4430    6.2250 C.3     1  UNL1        0.0189
     41 C          18.3010   19.7030    5.8300 C.3     1  UNL1        0.0043
     42 C          25.8010   23.1510    1.3490 C.3     1  UNL1        0.2561
     43 C          25.1580   22.9820   -0.1260 C.3     1  UNL1        0.1807
     44 N          24.4620   21.6590   -0.1940 N.3     1  UNL1       -0.1248
     45 C          26.3140   23.0570   -1.1640 C.3     1  UNL1        0.2070
     46 O          26.8940   24.3950   -0.9840 O.3     1  UNL1       -0.2186
     47 C          27.4040   21.8800   -0.8720 C.3     1  UNL1        0.2122
     48 O          26.8340   20.5360   -1.0520 O.3     1  UNL1       -0.2177
     49 C          27.9620   22.0280    0.6150 C.3     1  UNL1        0.1696
     50 O          26.7890   22.0100    1.5750 O.3     1  UNL1       -0.3276
     51 C          28.9720   20.8630    0.8350 C.3     1  UNL1        0.1415
     52 N          29.5330   20.9210    2.1620 N.3     1  UNL1       -0.1286
@<TRIPOS>BOND
     1     1     2    1
     2     1     3    1
     3     1    10    1
     4     3     4    1
     5     3     5    1
     6     5     6    1
     7     5     7    1
     8     7     8    1
     9     7     9    1
    10     9    10    1
    11     9    11    1
    12    11    12    1
    13    13    14    1
    14    13    15    1
    15    13    21    1
    16    15    16    1
    17    16    17    1
    18    16    18    1
    19    18     2    1
    20    18    19    1
    21    19    20    1
    22    19    21    1
    23    21    22    1
    24    23    20    1
    25    23    24    1
    26    23    25    1
    27    24    29    1
    28    25    26    1
    29    25    27    1
    30    26    32    1
    31    27    28    1
    32    27    29    1
    33    29    30    1
    34    30    31    1
    35    32    33    1
    36    33    34    1
    37    34    35    1
    38    36    35    1
    39    36    37    1
    40    36    41    1
    41    37    38    1
    42    38    39    1
    43    39    40    1
    44    40    41    1
    45    42    28    1
    46    42    43    1
    47    42    50    1
    48    43    44    1
    49    43    45    1
    50    45    46    1
    51    45    47    1
    52    47    48    1
    53    47    49    1
    54    49    50    1
    55    49    51    1
    56    51    52    1
