2BE0_JS5_A_50
 OpenBabel10091713573D
Coordinates from PDB:2BE0:A:50 Model:1 without hydrogens
 52 56  0  0  0  0  0  0  0  0999 V2000
   27.1310   25.1960    7.6310 C   0  0  2  0  0  0  0  0  0  0  0  0
   26.1480   26.1280    7.9860 O   0  0  0  0  0  0  0  0  0  0  0  0
   26.9490   23.8660    8.4680 C   0  0  2  0  0  0  0  0  0  0  0  0
   25.5850   23.3650    8.2960 N   0  0  0  0  0  0  0  0  0  0  0  0
   27.2880   24.1470   10.0090 C   0  0  1  0  0  0  0  0  0  0  0  0
   27.1110   22.9440   10.7490 O   0  0  0  0  0  0  0  0  0  0  0  0
   28.7510   24.6690   10.1020 C   0  0  2  0  0  0  0  0  0  0  0  0
   29.1230   24.9540   11.5080 O   0  0  0  0  0  0  0  0  0  0  0  0
   28.9200   25.9920    9.2550 C   0  0  2  0  0  0  0  0  0  0  0  0
   28.5330   25.6530    7.8930 O   0  0  0  0  0  0  0  0  0  0  0  0
   30.3260   26.4200    9.3620 C   0  0  0  0  0  0  0  0  0  0  0  0
   30.5140   27.5440    8.6600 O   0  0  0  0  0  0  0  0  0  0  0  0
   24.1130   29.6200    6.2630 C   0  0  2  0  0  0  0  0  0  0  0  0
   23.8860   30.8430    5.4470 N   0  0  0  0  0  0  0  0  0  0  0  0
   25.4060   29.8330    7.1720 C   0  0  0  0  0  0  0  0  0  0  0  0
   25.6960   28.5110    8.0820 C   0  0  2  0  0  0  0  0  0  0  0  0
   26.8560   28.6880    8.9060 N   0  0  0  0  0  0  0  0  0  0  0  0
   25.9020   27.2540    7.1560 C   0  0  2  0  0  0  0  0  0  0  0  0
   24.6140   27.0940    6.2780 C   0  0  2  0  0  0  0  0  0  0  0  0
   24.9010   25.9340    5.5130 O   0  0  0  0  0  0  0  0  0  0  0  0
   24.3840   28.3800    5.3740 C   0  0  1  0  0  0  0  0  0  0  0  0
   23.2370   28.2280    4.6050 O   0  0  0  0  0  0  0  0  0  0  0  0
   23.8730   24.9740    5.2870 C   0  0  2  0  0  0  0  0  0  0  0  0
   24.2170   23.6840    5.8180 O   0  0  0  0  0  0  0  0  0  0  0  0
   23.6080   24.7760    3.7930 C   0  0  2  0  0  0  0  0  0  0  0  0
   22.1750   24.3260    3.7710 O   0  0  0  0  0  0  0  0  0  0  0  0
   24.7590   23.7880    3.5050 C   0  0  2  0  0  0  0  0  0  0  0  0
   24.7100   23.0720    2.2840 O   0  0  0  0  0  0  0  0  0  0  0  0
   24.7740   22.8850    4.7540 C   0  0  1  0  0  0  0  0  0  0  0  0
   26.1890   22.4910    5.1990 C   0  0  0  0  0  0  0  0  0  0  0  0
   27.2530   23.0330    4.4490 O   0  0  0  0  0  0  0  0  0  0  0  0
   21.6210   22.9770    3.5000 C   0  0  0  0  0  0  0  0  0  0  0  0
   20.0880   23.0520    3.6340 C   0  0  0  0  0  0  0  0  0  0  0  0
   19.6500   22.2840    4.8530 N   0  0  0  0  0  0  0  0  0  0  0  0
   18.1440   22.3700    5.2300 C   0  0  0  0  0  0  0  0  0  0  0  0
   17.5060   20.9470    5.6560 C   0  0  2  0  0  0  0  0  0  0  0  0
   16.0880   20.8870    5.8800 C   0  0  0  0  0  0  0  0  0  0  0  0
   15.4750   19.6560    6.2580 N   0  0  0  0  0  0  0  0  0  0  0  0
   16.2070   18.4470    6.4310 C   0  0  0  0  0  0  0  0  0  0  0  0
   17.6130   18.4430    6.2250 C   0  0  0  0  0  0  0  0  0  0  0  0
   18.3010   19.7030    5.8300 C   0  0  0  0  0  0  0  0  0  0  0  0
   25.8010   23.1510    1.3490 C   0  0  2  0  0  0  0  0  0  0  0  0
   25.1580   22.9820   -0.1260 C   0  0  2  0  0  0  0  0  0  0  0  0
   24.4620   21.6590   -0.1940 N   0  0  0  0  0  0  0  0  0  0  0  0
   26.3140   23.0570   -1.1640 C   0  0  1  0  0  0  0  0  0  0  0  0
   26.8940   24.3950   -0.9840 O   0  0  0  0  0  0  0  0  0  0  0  0
   27.4040   21.8800   -0.8720 C   0  0  2  0  0  0  0  0  0  0  0  0
   26.8340   20.5360   -1.0520 O   0  0  0  0  0  0  0  0  0  0  0  0
   27.9620   22.0280    0.6150 C   0  0  1  0  0  0  0  0  0  0  0  0
   26.7890   22.0100    1.5750 O   0  0  0  0  0  0  0  0  0  0  0  0
   28.9720   20.8630    0.8350 C   0  0  0  0  0  0  0  0  0  0  0  0
   29.5330   20.9210    2.1620 N   0  0  0  0  0  0  0  0  0  0  0  0
  1  2  1  1  0  0  0
  1  3  1  0  0  0  0
  1 10  1  0  0  0  0
  3  4  1  1  0  0  0
  3  5  1  0  0  0  0
  5  6  1  1  0  0  0
  5  7  1  0  0  0  0
  7  8  1  1  0  0  0
  7  9  1  0  0  0  0
  9 10  1  0  0  0  0
  9 11  1  6  0  0  0
 11 12  1  0  0  0  0
 13 14  1  6  0  0  0
 13 15  1  0  0  0  0
 13 21  1  0  0  0  0
 15 16  1  0  0  0  0
 16 17  1  6  0  0  0
 16 18  1  0  0  0  0
 18  2  1  1  0  0  0
 18 19  1  0  0  0  0
 19 20  1  6  0  0  0
 19 21  1  0  0  0  0
 21 22  1  6  0  0  0
 23 20  1  6  0  0  0
 23 24  1  0  0  0  0
 23 25  1  0  0  0  0
 24 29  1  0  0  0  0
 25 26  1  1  0  0  0
 25 27  1  0  0  0  0
 26 32  1  0  0  0  0
 27 28  1  6  0  0  0
 27 29  1  0  0  0  0
 29 30  1  1  0  0  0
 30 31  1  0  0  0  0
 32 33  1  0  0  0  0
 33 34  1  0  0  0  0
 34 35  1  0  0  0  0
 36 35  1  1  0  0  0
 36 37  1  0  0  0  0
 36 41  1  0  0  0  0
 37 38  1  0  0  0  0
 38 39  1  0  0  0  0
 39 40  1  0  0  0  0
 40 41  1  0  0  0  0
 42 28  1  1  0  0  0
 42 43  1  0  0  0  0
 42 50  1  0  0  0  0
 43 44  1  1  0  0  0
 43 45  1  0  0  0  0
 45 46  1  1  0  0  0
 45 47  1  0  0  0  0
 47 48  1  1  0  0  0
 47 49  1  0  0  0  0
 49 50  1  0  0  0  0
 49 51  1  1  0  0  0
 51 52  1  0  0  0  0
A    1
C11
A    2
O11
A    3
C21
A    4
N21
A    5
C31
A    6
O31
A    7
C41
A    8
O41
A    9
C51
A   10
O51
A   11
C61
A   12
O61
A   13
C12
A   14
N12
A   15
C22
A   16
C32
A   17
N32
A   18
C42
A   19
C52
A   20
O52
A   21
C62
A   22
O62
A   23
C13
A   24
O13
A   25
C23
A   26
O23
A   27
C33
A   28
O33
A   29
C43
A   30
C53
A   31
O53
A   32
C63
A   33
C73
A   34
N73
A   35
C83
A   36
C15
A   37
C25
A   38
N25
A   39
C35
A   40
C45
A   41
C55
A   42
C14
A   43
C24
A   44
N24
A   45
C34
A   46
O34
A   47
C44
A   48
O44
A   49
C54
A   50
O54
A   51
C64
A   52
N64
M  END
>  <InstanceId>
2BE0_JS5_A_50

>  <ChemCompId>
JS5

>  <PdbId>
2BE0

>  <ChainId>
A

>  <ResidueNumber>
50

>  <InsertionCode>


>  <Model>
1

>  <AltIds>


>  <MissingHeavyAtoms>
0

>  <ObservedFormula>
C31 N7 O14

>  <Name>
(2S,3S,4R,5R,6R)-5-AMINO-2-(AMINOMETHYL)-6-((2R,3R,4R,5S)-5-((1R,2R,3S,5R,6S)-3,5-DIAMINO-2-((2S,3R,4R,5S,6R)-3-AMINO-4,5-DIHYDROXY-6-(HYDROXYMETHYL)-TETRAHYDRO-2H-PYRAN-2-YLOXY)-6-HYDROXYCYCLOHEXYLOXY)-2-(HYDROXYMETHYL)-4-(2-((R)-PIPERIDIN-3-YLMETHYLAMINO)ETHOXY)-TETRAHYDROFURAN-3-YLOXY)-TETRAHYDRO-2H-PYRAN-3,4-DIOL

>  <SystematicName>
(2R,3S,4R,5R,6S)-5-amino-6-[(1R,2R,3S,4R,6S)-4,6-diamino-2-[(2S,3R,4R,5R)-4-[(2R,3R,4R,5S,6S)-3-amino-6-(aminomethyl)-4,5-dihydroxy-oxan-2-yl]oxy-5-(hydroxymethyl)-3-[2-(piperidin-3-ylmethylamino)ethoxy]oxolan-2-yl]oxy-3-hydroxy-cyclohexyl]oxy-2-(hydroxymethyl)oxane-3,4-diol

>  <Synonyms>
2"-O-[N-(3-(AMINOMETHYL)-PYRIDINE)-2-AMINOETHYL]PAROMOMYCIN; O-2-AMINO-2-DEOXY-ALPHA-D-GLUCOPYRANOSYL-(1,4)-O-[O-2,6-DIAMINO-2,6-DIDEOXY-BETA-L-IDOPYRANOSYL-(1,3)-BETA-D-2-O-(3-ETHYLAMINOMETHYL)-PYRIDYL-(1,5)]-2-DEOXY-D-STREPTAMINE

>  <Type>
NON-POLYMER

>  <Formula>
C31 H61 N7 O14

>  <MolecularWeight>
755.855

>  <ModifiedDate>
2011-06-04

>  <Parent>


>  <OneLetterCode>


>  <SubcomponentList>


>  <AmbiguousFlag>
N

>  <InChI>
InChI=1S/C31H61N7O14/c32-7-15-21(42)23(44)18(35)29(47-15)51-26-17(11-40)49-31(28(26)46-5-4-38-9-12-2-1-3-37-8-12)52-27-20(41)13(33)6-14(34)25(27)50-30-19(36)24(45)22(43)16(10-39)48-30/h12-31,37-45H,1-11,32-36H2/t12?,13-,14+,15+,16-,17-,18-,19-,20+,21-,22-,23-,24-,25-,26-,27-,28-,29-,30-,31+/m1/s1

>  <InChIKey>
AHJDGUQMOYBKDU-NSCPTEJBSA-N

>  <SMILES>
C1CC(CNC1)CNCCO[C@@H]2[C@@H]([C@H](O[C@H]2O[C@@H]3[C@H]([C@@H](C[C@@H]([C@H]3O[C@@H]4[C@@H]([C@H]([C@@H]([C@H](O4)CO)O)O)N)N)N)O)CO)O[C@@H]5[C@@H]([C@H]([C@@H]([C@@H](O5)CN)O)O)N

$$$$
