REMARK  15 active torsions:
REMARK  status: ('A' for Active; 'I' for Inactive)
REMARK    1  A    between atoms: C_1  and  O_2 
REMARK    2  A    between atoms: C_18  and  O_2 
REMARK    3  A    between atoms: C_9  and  C_11 
REMARK    4  A    between atoms: C_19  and  O_20 
REMARK    5  A    between atoms: C_23  and  O_20 
REMARK    6  A    between atoms: C_25  and  O_26 
REMARK    7  A    between atoms: O_26  and  C_32 
REMARK    8  A    between atoms: C_27  and  O_28 
REMARK    9  A    between atoms: C_42  and  O_28 
REMARK   10  A    between atoms: C_29  and  C_30 
REMARK   11  A    between atoms: C_32  and  C_33 
REMARK   12  A    between atoms: C_33  and  N_34 
REMARK   13  A    between atoms: N_34  and  C_35 
REMARK   14  A    between atoms: C_36  and  C_35 
REMARK   15  A    between atoms: C_49  and  C_51 
ROOT
ATOM      1  C   UNL d   1      23.873  24.974   5.287  0.00  0.00     0.266 C 
ATOM      2  O   UNL d   1      24.217  23.684   5.818  0.00  0.00    -0.326 OA
ATOM      3  C   UNL d   1      23.608  24.776   3.793  0.00  0.00     0.201 C 
ATOM      4  C   UNL d   1      24.759  23.788   3.505  0.00  0.00     0.180 C 
ATOM      5  C   UNL d   1      24.774  22.885   4.754  0.00  0.00     0.180 C 
ENDROOT
BRANCH   1   6
ATOM      6  O   UNL d   1      24.901  25.934   5.513  0.00  0.00    -0.326 OA
BRANCH   6   7
ATOM      7  C   UNL d   1      24.614  27.094   6.278  0.00  0.00     0.179 C 
ATOM      8  C   UNL d   1      25.902  27.254   7.156  0.00  0.00     0.184 C 
ATOM      9  C   UNL d   1      25.696  28.511   8.082  0.00  0.00     0.333 C 
ATOM     10  C   UNL d   1      25.406  29.833   7.172  0.00  0.00     0.084 C 
ATOM     11  N   UNL d   1      26.856  28.688   8.906  0.00  0.00     0.619 N 
ATOM     12  C   UNL d   1      24.113  29.620   6.263  0.00  0.00     0.337 C 
ATOM     13  N   UNL d   1      23.886  30.843   5.447  0.00  0.00     0.619 N 
ATOM     14  C   UNL d   1      24.384  28.380   5.374  0.00  0.00     0.218 C 
ATOM     15  O   UNL d   1      23.237  28.228   4.605  0.00  0.00    -0.218 OA
BRANCH   8  16
ATOM     16  O   UNL d   1      26.148  26.128   7.986  0.00  0.00    -0.327 OA
BRANCH  16  17
ATOM     17  C   UNL d   1      27.131  25.196   7.631  0.00  0.00     0.277 C 
ATOM     18  C   UNL d   1      26.949  23.866   8.468  0.00  0.00     0.390 C 
ATOM     19  N   UNL d   1      25.585  23.365   8.296  0.00  0.00     0.624 N 
ATOM     20  C   UNL d   1      27.288  24.147  10.009  0.00  0.00     0.227 C 
ATOM     21  O   UNL d   1      27.111  22.944  10.749  0.00  0.00    -0.218 OA
ATOM     22  C   UNL d   1      28.751  24.669  10.102  0.00  0.00     0.214 C 
ATOM     23  O   UNL d   1      29.123  24.954  11.508  0.00  0.00    -0.218 OA
ATOM     24  C   UNL d   1      28.920  25.992   9.255  0.00  0.00     0.184 C 
ATOM     25  O   UNL d   1      28.533  25.653   7.893  0.00  0.00    -0.326 OA
BRANCH  24  26
ATOM     26  C   UNL d   1      30.326  26.420   9.362  0.00  0.00     0.214 C 
ATOM     27  O   UNL d   1      30.514  27.544   8.660  0.00  0.00    -0.218 OA
ENDBRANCH  24  26
ENDBRANCH  16  17
ENDBRANCH   8  16
ENDBRANCH   6   7
ENDBRANCH   1   6
BRANCH   3  28
ATOM     28  O   UNL d   1      22.175  24.326   3.771  0.00  0.00    -0.347 OA
BRANCH  28  29
ATOM     29  C   UNL d   1      21.621  22.977   3.500  0.00  0.00     0.168 C 
BRANCH  29  30
ATOM     30  C   UNL d   1      20.088  23.052   3.634  0.00  0.00     0.152 C 
BRANCH  30  31
ATOM     31  N   UNL d   1      19.650  22.284   4.853  0.00  0.00    -0.288 NA
BRANCH  31  32
ATOM     32  C   UNL d   1      18.144  22.370   5.230  0.00  0.00     0.144 C 
BRANCH  32  33
ATOM     33  C   UNL d   1      17.506  20.947   5.656  0.00  0.00    -0.001 A 
ATOM     34  C   UNL d   1      16.088  20.887   5.880  0.00  0.00     0.092 A 
ATOM     35  N   UNL d   1      15.475  19.656   6.258  0.00  0.00    -0.248 NA
ATOM     36  C   UNL d   1      16.207  18.447   6.431  0.00  0.00     0.073 A 
ATOM     37  C   UNL d   1      17.613  18.443   6.225  0.00  0.00     0.051 A 
ATOM     38  C   UNL d   1      18.301  19.703   5.830  0.00  0.00     0.032 A 
ENDBRANCH  32  33
ENDBRANCH  31  32
ENDBRANCH  30  31
ENDBRANCH  29  30
ENDBRANCH  28  29
ENDBRANCH   3  28
BRANCH   5  39
ATOM     39  C   UNL d   1      26.189  22.491   5.199  0.00  0.00     0.214 C 
ATOM     40  O   UNL d   1      27.253  23.033   4.449  0.00  0.00    -0.218 OA
ENDBRANCH   5  39
BRANCH   4  41
ATOM     41  O   UNL d   1      24.710  23.072   2.284  0.00  0.00    -0.327 OA
BRANCH  41  42
ATOM     42  C   UNL d   1      25.801  23.151   1.349  0.00  0.00     0.277 C 
ATOM     43  C   UNL d   1      25.158  22.982  -0.126  0.00  0.00     0.390 C 
ATOM     44  N   UNL d   1      24.462  21.659  -0.194  0.00  0.00     0.624 N 
ATOM     45  C   UNL d   1      26.314  23.057  -1.164  0.00  0.00     0.227 C 
ATOM     46  O   UNL d   1      26.894  24.395  -0.984  0.00  0.00    -0.218 OA
ATOM     47  C   UNL d   1      27.404  21.880  -0.872  0.00  0.00     0.214 C 
ATOM     48  O   UNL d   1      26.834  20.536  -1.052  0.00  0.00    -0.218 OA
ATOM     49  C   UNL d   1      27.962  22.028   0.615  0.00  0.00     0.190 C 
ATOM     50  O   UNL d   1      26.789  22.010   1.575  0.00  0.00    -0.327 OA
BRANCH  49  51
ATOM     51  C   UNL d   1      28.972  20.863   0.835  0.00  0.00     0.370 C 
ATOM     52  N   UNL d   1      29.533  20.921   2.162  0.00  0.00     0.621 N 
ENDBRANCH  49  51
ENDBRANCH  41  42
ENDBRANCH   4  41
TORSDOF 15
