1EI2_NMY_A_26
 OpenBabel03221816523D

 88 91  0  0  1  0  0  0  0  0999 V2000
   -1.9866   -9.8139    1.6689 C   0  0  2  0  0  0  0  0  0  0  0  0
   -2.9474  -10.1369    1.2487 H   0  0  0  0  0  0  0  0  0  0  0  0
   -1.3940  -11.0502    2.1195 O   0  0  0  0  0  0  0  0  0  0  0  0
   -0.0881  -11.0094    2.7533 C   0  0  1  0  0  0  0  0  0  0  0  0
    0.6378  -10.6573    2.0206 H   0  0  0  0  0  0  0  0  0  0  0  0
   -0.0120  -10.1304    4.0405 C   0  0  1  0  0  0  0  0  0  0  0  0
   -0.4006   -9.1420    3.8020 H   0  0  0  0  0  0  0  0  0  0  0  0
   -0.8696  -10.7659    5.1744 C   0  0  2  0  0  0  0  0  0  0  0  0
   -0.8380  -10.1439    6.0714 H   0  0  0  0  0  0  0  0  0  0  0  0
   -0.3621  -12.1805    5.5371 C   0  0  2  0  0  0  0  0  0  0  0  0
   -1.0662  -12.6210    6.2532 H   0  0  0  0  0  0  0  0  0  0  0  0
    0.9595  -12.2033    6.1848 N   0  0  0  0  0  0  0  0  0  0  0  0
   -0.3778  -13.0685    4.2837 C   0  0  0  0  0  0  0  0  0  0  0  0
    0.3496  -12.4810    3.0573 C   0  0  2  0  0  0  0  0  0  0  0  0
    0.0644  -13.1047    2.2002 H   0  0  0  0  0  0  0  0  0  0  0  0
    1.8151  -12.6063    3.1804 N   0  0  0  0  0  0  0  0  0  0  0  0
   -2.2666  -10.8546    4.8609 O   0  0  0  0  0  0  0  0  0  0  0  0
    1.3697   -9.9298    4.4390 O   0  0  0  0  0  0  0  0  0  0  0  0
    1.4855   -8.9339    5.4612 C   0  0  1  0  0  0  0  0  0  0  0  0
    0.8897   -9.2370    6.3263 H   0  0  0  0  0  0  0  0  0  0  0  0
    2.9185   -8.7201    5.9415 C   0  0  1  0  0  0  0  0  0  0  0  0
    3.5917   -8.6022    5.0896 H   0  0  0  0  0  0  0  0  0  0  0  0
    2.7350   -7.4144    6.7197 C   0  0  1  0  0  0  0  0  0  0  0  0
    3.6867   -6.8938    6.8670 H   0  0  0  0  0  0  0  0  0  0  0  0
    1.7234   -6.6663    5.8269 C   0  0  2  0  0  0  0  0  0  0  0  0
    0.9278   -6.1675    6.3776 H   0  0  0  0  0  0  0  0  0  0  0  0
    1.0450   -7.6525    5.0139 O   0  0  0  0  0  0  0  0  0  0  0  0
    2.4039   -5.6435    4.9178 C   0  0  0  0  0  0  0  0  0  0  0  0
    3.4833   -6.2326    4.1956 O   0  0  0  0  0  0  0  0  0  0  0  0
    2.1888   -7.7369    8.0269 O   0  0  0  0  0  0  0  0  0  0  0  0
    2.1820   -6.6151    8.9296 C   0  0  2  0  0  0  0  0  0  0  0  0
    3.1984   -6.2034    8.9468 H   0  0  0  0  0  0  0  0  0  0  0  0
    1.7939   -7.0648   10.3753 C   0  0  1  0  0  0  0  0  0  0  0  0
    2.5509   -7.7738   10.7300 H   0  0  0  0  0  0  0  0  0  0  0  0
    1.7800   -5.8121   11.2934 C   0  0  2  0  0  0  0  0  0  0  0  0
    1.3647   -6.1019   12.2670 H   0  0  0  0  0  0  0  0  0  0  0  0
    0.9228   -4.6678   10.7152 C   0  0  1  0  0  0  0  0  0  0  0  0
    1.0749   -3.7498   11.2944 H   0  0  0  0  0  0  0  0  0  0  0  0
    1.3140   -4.3990    9.2461 C   0  0  1  0  0  0  0  0  0  0  0  0
    2.3352   -3.9983    9.2024 H   0  0  0  0  0  0  0  0  0  0  0  0
    1.2744   -5.6135    8.4864 O   0  0  0  0  0  0  0  0  0  0  0  0
    0.3542   -3.3824    8.5861 C   0  0  0  0  0  0  0  0  0  0  0  0
    0.7596   -3.0238    7.2171 N   0  0  0  0  0  0  0  0  0  0  0  0
   -0.4691   -4.9981   10.8026 O   0  0  0  0  0  0  0  0  0  0  0  0
    3.1107   -5.3534   11.5752 O   0  0  0  0  0  0  0  0  0  0  0  0
    0.4907   -7.7742   10.4116 N   0  0  0  0  0  0  0  0  0  0  0  0
    3.4140   -9.7775    6.7638 O   0  0  0  0  0  0  0  0  0  0  0  0
   -1.2487   -9.0714    0.5022 C   0  0  2  0  0  0  0  0  0  0  0  0
   -1.3557   -9.7020   -0.3895 H   0  0  0  0  0  0  0  0  0  0  0  0
    0.2023   -8.8721    0.6838 N   0  0  0  0  0  0  0  0  0  0  0  0
   -1.9241   -7.7019    0.2588 C   0  0  1  0  0  0  0  0  0  0  0  0
   -1.2888   -7.1304   -0.4301 H   0  0  0  0  0  0  0  0  0  0  0  0
   -3.1791   -7.7967   -0.4115 O   0  0  0  0  0  0  0  0  0  0  0  0
   -2.0419   -6.9006    1.5632 C   0  0  2  0  0  0  0  0  0  0  0  0
   -2.5706   -5.9571    1.3897 H   0  0  0  0  0  0  0  0  0  0  0  0
   -0.7270   -6.5568    2.0337 O   0  0  0  0  0  0  0  0  0  0  0  0
   -2.7573   -7.6899    2.6727 C   0  0  2  0  0  0  0  0  0  0  0  0
   -2.4774   -7.2291    3.6303 H   0  0  0  0  0  0  0  0  0  0  0  0
   -2.3273   -9.0463    2.8117 O   0  0  0  0  0  0  0  0  0  0  0  0
   -4.2956   -7.5914    2.5829 C   0  0  0  0  0  0  0  0  0  0  0  0
   -4.9802   -8.3263    3.6518 N   0  0  0  0  0  0  0  0  0  0  0  0
    0.9270  -11.6469    7.0394 H   0  0  0  0  0  0  0  0  0  0  0  0
    1.6370  -11.7164    5.5883 H   0  0  0  0  0  0  0  0  0  0  0  0
   -1.4250  -13.2467    4.0040 H   0  0  0  0  0  0  0  0  0  0  0  0
    0.0254  -14.0608    4.5260 H   0  0  0  0  0  0  0  0  0  0  0  0
    2.0406  -13.2840    3.9101 H   0  0  0  0  0  0  0  0  0  0  0  0
    2.2038  -11.7158    3.5048 H   0  0  0  0  0  0  0  0  0  0  0  0
   -2.3718  -10.5851    3.9276 H   0  0  0  0  0  0  0  0  0  0  0  0
    1.6867   -5.2411    4.1958 H   0  0  0  0  0  0  0  0  0  0  0  0
    2.8186   -4.8253    5.5145 H   0  0  0  0  0  0  0  0  0  0  0  0
    3.7068   -5.6243    3.4708 H   0  0  0  0  0  0  0  0  0  0  0  0
    0.3136   -2.4672    9.1872 H   0  0  0  0  0  0  0  0  0  0  0  0
   -0.6583   -3.7985    8.5297 H   0  0  0  0  0  0  0  0  0  0  0  0
    1.6483   -2.5307    7.2346 H   0  0  0  0  0  0  0  0  0  0  0  0
    0.0724   -2.3728    6.8362 H   0  0  0  0  0  0  0  0  0  0  0  0
   -0.6788   -5.1836   11.7349 H   0  0  0  0  0  0  0  0  0  0  0  0
    3.5745   -5.0943   10.7636 H   0  0  0  0  0  0  0  0  0  0  0  0
   -0.1994   -7.1864    9.9290 H   0  0  0  0  0  0  0  0  0  0  0  0
    0.1609   -7.8680   11.3702 H   0  0  0  0  0  0  0  0  0  0  0  0
    2.9836   -9.6547    7.6299 H   0  0  0  0  0  0  0  0  0  0  0  0
    0.3576   -8.2638    1.4973 H   0  0  0  0  0  0  0  0  0  0  0  0
    0.6107   -8.4019   -0.1203 H   0  0  0  0  0  0  0  0  0  0  0  0
   -3.6635   -8.5907   -0.1307 H   0  0  0  0  0  0  0  0  0  0  0  0
   -0.3239   -5.9571    1.3824 H   0  0  0  0  0  0  0  0  0  0  0  0
   -4.5938   -6.5380    2.6412 H   0  0  0  0  0  0  0  0  0  0  0  0
   -4.6672   -7.9833    1.6355 H   0  0  0  0  0  0  0  0  0  0  0  0
   -4.6391   -7.9992    4.5581 H   0  0  0  0  0  0  0  0  0  0  0  0
   -4.6783   -9.3033    3.6238 H   0  0  0  0  0  0  0  0  0  0  0  0
  1 48  1  6  0  0  0
  1 59  1  0  0  0  0
  1  3  1  0  0  0  0
  1  2  1  0  0  0  0
  3  4  1  0  0  0  0
  4  5  1  0  0  0  0
  4  6  1  1  0  0  0
  6  8  1  1  0  0  0
  6 18  1  0  0  0  0
  6  7  1  0  0  0  0
  8 10  1  1  0  0  0
  8 17  1  0  0  0  0
  8  9  1  0  0  0  0
 10 11  1  1  0  0  0
 10 12  1  0  0  0  0
 10 13  1  0  0  0  0
 12 62  1  0  0  0  0
 12 63  1  0  0  0  0
 13 14  1  0  0  0  0
 13 64  1  0  0  0  0
 13 65  1  0  0  0  0
 14 15  1  0  0  0  0
 14  4  1  6  0  0  0
 14 16  1  0  0  0  0
 16 66  1  0  0  0  0
 16 67  1  0  0  0  0
 17 68  1  0  0  0  0
 18 19  1  0  0  0  0
 19 20  1  0  0  0  0
 19 21  1  1  0  0  0
 19 27  1  0  0  0  0
 21 23  1  1  0  0  0
 21 47  1  0  0  0  0
 21 22  1  0  0  0  0
 23 24  1  0  0  0  0
 23 25  1  6  0  0  0
 23 30  1  0  0  0  0
 25 27  1  0  0  0  0
 25 28  1  0  0  0  0
 25 26  1  1  0  0  0
 28 29  1  0  0  0  0
 28 69  1  0  0  0  0
 28 70  1  0  0  0  0
 29 71  1  0  0  0  0
 31 41  1  0  0  0  0
 31 32  1  1  0  0  0
 31 30  1  0  0  0  0
 33 31  1  6  0  0  0
 33 46  1  0  0  0  0
 33 34  1  0  0  0  0
 35 33  1  6  0  0  0
 35 45  1  0  0  0  0
 35 36  1  0  0  0  0
 37 35  1  1  0  0  0
 37 38  1  0  0  0  0
 37 44  1  0  0  0  0
 39 37  1  1  0  0  0
 39 40  1  0  0  0  0
 39 41  1  0  0  0  0
 39 42  1  0  0  0  0
 42 43  1  0  0  0  0
 42 72  1  0  0  0  0
 42 73  1  0  0  0  0
 43 74  1  0  0  0  0
 43 75  1  0  0  0  0
 44 76  1  0  0  0  0
 45 77  1  0  0  0  0
 46 78  1  0  0  0  0
 46 79  1  0  0  0  0
 47 80  1  0  0  0  0
 48 51  1  6  0  0  0
 48 50  1  0  0  0  0
 48 49  1  0  0  0  0
 50 81  1  0  0  0  0
 50 82  1  0  0  0  0
 51 54  1  1  0  0  0
 51 53  1  0  0  0  0
 51 52  1  0  0  0  0
 53 83  1  0  0  0  0
 54 55  1  0  0  0  0
 54 56  1  0  0  0  0
 54 57  1  1  0  0  0
 56 84  1  0  0  0  0
 57 59  1  0  0  0  0
 57 60  1  0  0  0  0
 57 58  1  1  0  0  0
 60 61  1  0  0  0  0
 60 85  1  0  0  0  0
 60 86  1  0  0  0  0
 61 87  1  0  0  0  0
 61 88  1  0  0  0  0
M  END
$$$$
