REMARK  22 active torsions:
REMARK  status: ('A' for Active; 'I' for Inactive)
REMARK    1  A    between atoms: C_1  and  O_2 
REMARK    2  A    between atoms: O_2  and  C_3 
REMARK    3  A    between atoms: C_4  and  O_12 
REMARK    4  A    between atoms: C_5  and  O_11 
REMARK    5  A    between atoms: C_6  and  N_7 
REMARK    6  A    between atoms: C_9  and  N_10 
REMARK    7  A    between atoms: O_12  and  C_13 
REMARK    8  A    between atoms: C_14  and  O_32 
REMARK    9  A    between atoms: C_15  and  O_20 
REMARK   10  A    between atoms: C_16  and  C_18 
REMARK   11  A    between atoms: C_18  and  O_19 
REMARK   12  A    between atoms: C_21  and  O_20 
REMARK   13  A    between atoms: C_22  and  N_31 
REMARK   14  A    between atoms: C_23  and  O_30 
REMARK   15  A    between atoms: C_24  and  O_29 
REMARK   16  A    between atoms: C_25  and  C_27 
REMARK   17  A    between atoms: C_27  and  N_28 
REMARK   18  A    between atoms: C_33  and  N_34 
REMARK   19  A    between atoms: C_35  and  O_36 
REMARK   20  A    between atoms: C_37  and  O_38 
REMARK   21  A    between atoms: C_39  and  C_41 
REMARK   22  A    between atoms: C_41  and  N_42 
ROOT
ATOM      1  C   UNL d   1      -0.088 -11.009   2.753  0.00  0.00     0.189 C 
ATOM      2  C   UNL d   1      -0.012 -10.130   4.040  0.00  0.00     0.186 C 
ATOM      3  C   UNL d   1      -0.870 -10.766   5.174  0.00  0.00     0.182 C 
ATOM      4  C   UNL d   1      -0.362 -12.181   5.537  0.00  0.00     0.251 C 
ATOM      5  C   UNL d   1      -0.378 -13.069   4.284  0.00  0.00     0.076 C 
ATOM      6  C   UNL d   1       0.350 -12.481   3.057  0.00  0.00     0.251 C 
ENDROOT
BRANCH   2   7
ATOM      7  O   UNL d   1       1.370  -9.930   4.439  0.00  0.00    -0.348 OA
BRANCH   7   8
ATOM      8  C   UNL d   1       1.486  -8.934   5.461  0.00  0.00     0.292 C 
ATOM      9  C   UNL d   1       2.918  -8.720   5.941  0.00  0.00     0.205 C 
ATOM     10  C   UNL d   1       2.735  -7.414   6.720  0.00  0.00     0.189 C 
ATOM     11  C   UNL d   1       1.723  -6.666   5.827  0.00  0.00     0.180 C 
ATOM     12  O   UNL d   1       1.045  -7.652   5.014  0.00  0.00    -0.348 OA
BRANCH   9  13
ATOM     13  O   UNL d   1       3.414  -9.777   6.764  0.00  0.00    -0.388 OA
ATOM     14  H   UNL d   1       2.984  -9.655   7.630  0.00  0.00     0.210 HD
ENDBRANCH   9  13
BRANCH  10  15
ATOM     15  O   UNL d   1       2.189  -7.737   8.027  0.00  0.00    -0.348 OA
BRANCH  15  16
ATOM     16  C   UNL d   1       2.182  -6.615   8.930  0.00  0.00     0.296 C 
ATOM     17  O   UNL d   1       1.274  -5.614   8.486  0.00  0.00    -0.349 OA
ATOM     18  C   UNL d   1       1.314  -4.399   9.246  0.00  0.00     0.183 C 
ATOM     19  C   UNL d   1       0.923  -4.668  10.715  0.00  0.00     0.179 C 
ATOM     20  C   UNL d   1       1.780  -5.812  11.293  0.00  0.00     0.187 C 
ATOM     21  C   UNL d   1       1.794  -7.065  10.375  0.00  0.00     0.303 C 
BRANCH  18  22
ATOM     22  C   UNL d   1       0.354  -3.382   8.586  0.00  0.00     0.301 C 
BRANCH  22  23
ATOM     23  N   UNL d   1       0.760  -3.024   7.217  0.00  0.00     0.080 N 
ATOM     24  H   UNL d   1       1.648  -2.531   7.235  0.00  0.00     0.312 HD
ATOM     25  H   UNL d   1       0.072  -2.373   6.836  0.00  0.00     0.312 HD
ENDBRANCH  22  23
ENDBRANCH  18  22
BRANCH  19  26
ATOM     26  O   UNL d   1      -0.469  -4.998  10.803  0.00  0.00    -0.390 OA
ATOM     27  H   UNL d   1      -0.679  -5.184  11.735  0.00  0.00     0.210 HD
ENDBRANCH  19  26
BRANCH  20  28
ATOM     28  O   UNL d   1       3.111  -5.353  11.575  0.00  0.00    -0.391 OA
ATOM     29  H   UNL d   1       3.575  -5.094  10.764  0.00  0.00     0.210 HD
ENDBRANCH  20  28
BRANCH  21  30
ATOM     30  N   UNL d   1       0.491  -7.774  10.412  0.00  0.00     0.090 N 
ATOM     31  H   UNL d   1      -0.199  -7.186   9.929  0.00  0.00     0.313 HD
ATOM     32  H   UNL d   1       0.161  -7.868  11.370  0.00  0.00     0.313 HD
ENDBRANCH  21  30
ENDBRANCH  15  16
ENDBRANCH  10  15
BRANCH  11  33
ATOM     33  C   UNL d   1       2.404  -5.644   4.918  0.00  0.00     0.198 C 
BRANCH  33  34
ATOM     34  O   UNL d   1       3.483  -6.233   4.196  0.00  0.00    -0.398 OA
ATOM     35  H   UNL d   1       3.707  -5.624   3.471  0.00  0.00     0.209 HD
ENDBRANCH  33  34
ENDBRANCH  11  33
ENDBRANCH   7   8
ENDBRANCH   2   7
BRANCH   1  36
ATOM     36  O   UNL d   1      -1.394 -11.050   2.119  0.00  0.00    -0.349 OA
BRANCH  36  37
ATOM     37  C   UNL d   1      -1.987  -9.814   1.669  0.00  0.00     0.296 C 
ATOM     38  C   UNL d   1      -1.249  -9.071   0.502  0.00  0.00     0.303 C 
ATOM     39  C   UNL d   1      -1.924  -7.702   0.259  0.00  0.00     0.187 C 
ATOM     40  C   UNL d   1      -2.042  -6.901   1.563  0.00  0.00     0.179 C 
ATOM     41  C   UNL d   1      -2.757  -7.690   2.673  0.00  0.00     0.183 C 
ATOM     42  O   UNL d   1      -2.327  -9.046   2.812  0.00  0.00    -0.349 OA
BRANCH  38  43
ATOM     43  N   UNL d   1       0.202  -8.872   0.684  0.00  0.00     0.090 N 
ATOM     44  H   UNL d   1       0.358  -8.264   1.497  0.00  0.00     0.313 HD
ATOM     45  H   UNL d   1       0.611  -8.402  -0.120  0.00  0.00     0.313 HD
ENDBRANCH  38  43
BRANCH  39  46
ATOM     46  O   UNL d   1      -3.179  -7.797  -0.411  0.00  0.00    -0.391 OA
ATOM     47  H   UNL d   1      -3.663  -8.591  -0.131  0.00  0.00     0.210 HD
ENDBRANCH  39  46
BRANCH  40  48
ATOM     48  O   UNL d   1      -0.727  -6.557   2.034  0.00  0.00    -0.390 OA
ATOM     49  H   UNL d   1      -0.324  -5.957   1.382  0.00  0.00     0.210 HD
ENDBRANCH  40  48
BRANCH  41  50
ATOM     50  C   UNL d   1      -4.296  -7.591   2.583  0.00  0.00     0.301 C 
BRANCH  50  51
ATOM     51  N   UNL d   1      -4.980  -8.326   3.652  0.00  0.00     0.080 N 
ATOM     52  H   UNL d   1      -4.639  -7.999   4.558  0.00  0.00     0.312 HD
ATOM     53  H   UNL d   1      -4.678  -9.303   3.624  0.00  0.00     0.312 HD
ENDBRANCH  50  51
ENDBRANCH  41  50
ENDBRANCH  36  37
ENDBRANCH   1  36
BRANCH   3  54
ATOM     54  O   UNL d   1      -2.267 -10.855   4.861  0.00  0.00    -0.391 OA
ATOM     55  H   UNL d   1      -2.372 -10.585   3.928  0.00  0.00     0.210 HD
ENDBRANCH   3  54
BRANCH   6  56
ATOM     56  N   UNL d   1       1.815 -12.606   3.180  0.00  0.00     0.085 N 
ATOM     57  H   UNL d   1       2.041 -13.284   3.910  0.00  0.00     0.313 HD
ATOM     58  H   UNL d   1       2.204 -11.716   3.505  0.00  0.00     0.313 HD
ENDBRANCH   6  56
BRANCH   4  59
ATOM     59  N   UNL d   1       0.960 -12.203   6.185  0.00  0.00     0.085 N 
ATOM     60  H   UNL d   1       0.927 -11.647   7.039  0.00  0.00     0.313 HD
ATOM     61  H   UNL d   1       1.637 -11.716   5.588  0.00  0.00     0.313 HD
ENDBRANCH   4  59
TORSDOF 22
