@<TRIPOS>MOLECULE
1EI2_NMY_A_26
 88 91 0 0 0
SMALL
GASTEIGER

@<TRIPOS>ATOM
      1 C          -1.9866   -9.8139    1.6689 C.3     1  UNL1        0.1776
      2 H          -2.9474  -10.1369    1.2487 H       1  UNL1        0.0927
      3 O          -1.3940  -11.0502    2.1195 O.3     1  UNL1       -0.3422
      4 C          -0.0881  -11.0094    2.7533 C.3     1  UNL1        0.1055
      5 H           0.6378  -10.6573    2.0206 H       1  UNL1        0.0639
      6 C          -0.0120  -10.1304    4.0405 C.3     1  UNL1        0.1166
      7 H          -0.4006   -9.1420    3.8020 H       1  UNL1        0.0650
      8 C          -0.8696  -10.7659    5.1744 C.3     1  UNL1        0.0990
      9 H          -0.8380  -10.1439    6.0714 H       1  UNL1        0.0636
     10 C          -0.3621  -12.1805    5.5371 C.3     1  UNL1        0.0351
     11 H          -1.0662  -12.6210    6.2532 H       1  UNL1        0.0485
     12 N           0.9595  -12.2033    6.1848 N.3     1  UNL1       -0.3250
     13 C          -0.3778  -13.0685    4.2837 C.3     1  UNL1       -0.0175
     14 C           0.3496  -12.4810    3.0573 C.3     1  UNL1        0.0355
     15 H           0.0644  -13.1047    2.2002 H       1  UNL1        0.0485
     16 N           1.8151  -12.6063    3.1804 N.3     1  UNL1       -0.3250
     17 O          -2.2666  -10.8546    4.8609 O.3     1  UNL1       -0.3876
     18 O           1.3697   -9.9298    4.4390 O.3     1  UNL1       -0.3402
     19 C           1.4855   -8.9339    5.4612 C.3     1  UNL1        0.1884
     20 H           0.8897   -9.2370    6.3263 H       1  UNL1        0.0938
     21 C           2.9185   -8.7201    5.9415 C.3     1  UNL1        0.1345
     22 H           3.5917   -8.6022    5.0896 H       1  UNL1        0.0671
     23 C           2.7350   -7.4144    6.7197 C.3     1  UNL1        0.1205
     24 H           3.6867   -6.8938    6.8670 H       1  UNL1        0.0651
     25 C           1.7234   -6.6663    5.8269 C.3     1  UNL1        0.1135
     26 H           0.9278   -6.1675    6.3776 H       1  UNL1        0.0647
     27 O           1.0450   -7.6525    5.0139 O.3     1  UNL1       -0.3405
     28 C           2.4039   -5.6435    4.9178 C.3     1  UNL1        0.0730
     29 O           3.4833   -6.2326    4.1956 O.3     1  UNL1       -0.3924
     30 O           2.1888   -7.7369    8.0269 O.3     1  UNL1       -0.3410
     31 C           2.1820   -6.6151    8.9296 C.3     1  UNL1        0.1776
     32 H           3.1984   -6.2034    8.9468 H       1  UNL1        0.0927
     33 C           1.7939   -7.0648   10.3753 C.3     1  UNL1        0.0853
     34 H           2.5509   -7.7738   10.7300 H       1  UNL1        0.0535
     35 C           1.7800   -5.8121   11.2934 C.3     1  UNL1        0.1033
     36 H           1.3647   -6.1019   12.2670 H       1  UNL1        0.0637
     37 C           0.9228   -4.6678   10.7152 C.3     1  UNL1        0.1100
     38 H           1.0749   -3.7498   11.2944 H       1  UNL1        0.0646
     39 C           1.3140   -4.3990    9.2461 C.3     1  UNL1        0.1022
     40 H           2.3352   -3.9983    9.2024 H       1  UNL1        0.0636
     41 O           1.2744   -5.6135    8.4864 O.3     1  UNL1       -0.3425
     42 C           0.3542   -3.3824    8.5861 C.3     1  UNL1        0.0222
     43 N           0.7596   -3.0238    7.2171 N.3     1  UNL1       -0.3276
     44 O          -0.4691   -4.9981   10.8026 O.3     1  UNL1       -0.3866
     45 O           3.1107   -5.3534   11.5752 O.3     1  UNL1       -0.3874
     46 N           0.4907   -7.7742   10.4116 N.3     1  UNL1       -0.3211
     47 O           3.4140   -9.7775    6.7638 O.3     1  UNL1       -0.3841
     48 C          -1.2487   -9.0714    0.5022 C.3     1  UNL1        0.0853
     49 H          -1.3557   -9.7020   -0.3895 H       1  UNL1        0.0535
     50 N           0.2023   -8.8721    0.6838 N.3     1  UNL1       -0.3211
     51 C          -1.9241   -7.7019    0.2588 C.3     1  UNL1        0.1033
     52 H          -1.2888   -7.1304   -0.4301 H       1  UNL1        0.0637
     53 O          -3.1791   -7.7967   -0.4115 O.3     1  UNL1       -0.3874
     54 C          -2.0419   -6.9006    1.5632 C.3     1  UNL1        0.1100
     55 H          -2.5706   -5.9571    1.3897 H       1  UNL1        0.0646
     56 O          -0.7270   -6.5568    2.0337 O.3     1  UNL1       -0.3866
     57 C          -2.7573   -7.6899    2.6727 C.3     1  UNL1        0.1022
     58 H          -2.4774   -7.2291    3.6303 H       1  UNL1        0.0636
     59 O          -2.3273   -9.0463    2.8117 O.3     1  UNL1       -0.3425
     60 C          -4.2956   -7.5914    2.5829 C.3     1  UNL1        0.0222
     61 N          -4.9802   -8.3263    3.6518 N.3     1  UNL1       -0.3276
     62 H           0.9270  -11.6469    7.0394 H       1  UNL1        0.1185
     63 H           1.6370  -11.7164    5.5883 H       1  UNL1        0.1185
     64 H          -1.4250  -13.2467    4.0040 H       1  UNL1        0.0297
     65 H           0.0254  -14.0608    4.5260 H       1  UNL1        0.0297
     66 H           2.0406  -13.2840    3.9101 H       1  UNL1        0.1185
     67 H           2.2038  -11.7158    3.5048 H       1  UNL1        0.1185
     68 H          -2.3718  -10.5851    3.9276 H       1  UNL1        0.2100
     69 H           1.6867   -5.2411    4.1958 H       1  UNL1        0.0584
     70 H           2.8186   -4.8253    5.5145 H       1  UNL1        0.0584
     71 H           3.7068   -5.6243    3.4708 H       1  UNL1        0.2095
     72 H           0.3136   -2.4672    9.1872 H       1  UNL1        0.0448
     73 H          -0.6583   -3.7985    8.5297 H       1  UNL1        0.0448
     74 H           1.6483   -2.5307    7.2346 H       1  UNL1        0.1183
     75 H           0.0724   -2.3728    6.8362 H       1  UNL1        0.1183
     76 H          -0.6788   -5.1836   11.7349 H       1  UNL1        0.2100
     77 H           3.5745   -5.0943   10.7636 H       1  UNL1        0.2100
     78 H          -0.1994   -7.1864    9.9290 H       1  UNL1        0.1187
     79 H           0.1609   -7.8680   11.3702 H       1  UNL1        0.1187
     80 H           2.9836   -9.6547    7.6299 H       1  UNL1        0.2101
     81 H           0.3576   -8.2638    1.4973 H       1  UNL1        0.1187
     82 H           0.6107   -8.4019   -0.1203 H       1  UNL1        0.1187
     83 H          -3.6635   -8.5907   -0.1307 H       1  UNL1        0.2100
     84 H          -0.3239   -5.9571    1.3824 H       1  UNL1        0.2100
     85 H          -4.5938   -6.5380    2.6412 H       1  UNL1        0.0448
     86 H          -4.6672   -7.9833    1.6355 H       1  UNL1        0.0448
     87 H          -4.6391   -7.9992    4.5581 H       1  UNL1        0.1183
     88 H          -4.6783   -9.3033    3.6238 H       1  UNL1        0.1183
@<TRIPOS>BOND
     1     1    48    1
     2     1    59    1
     3     1     3    1
     4     1     2    1
     5     3     4    1
     6     4     5    1
     7     4     6    1
     8     6     8    1
     9     6    18    1
    10     6     7    1
    11     8    10    1
    12     8    17    1
    13     8     9    1
    14    10    11    1
    15    10    12    1
    16    10    13    1
    17    12    62    1
    18    12    63    1
    19    13    14    1
    20    13    64    1
    21    13    65    1
    22    14    15    1
    23    14     4    1
    24    14    16    1
    25    16    66    1
    26    16    67    1
    27    17    68    1
    28    18    19    1
    29    19    20    1
    30    19    21    1
    31    19    27    1
    32    21    23    1
    33    21    47    1
    34    21    22    1
    35    23    24    1
    36    23    25    1
    37    23    30    1
    38    25    27    1
    39    25    28    1
    40    25    26    1
    41    28    29    1
    42    28    69    1
    43    28    70    1
    44    29    71    1
    45    31    41    1
    46    31    32    1
    47    31    30    1
    48    33    31    1
    49    33    46    1
    50    33    34    1
    51    35    33    1
    52    35    45    1
    53    35    36    1
    54    37    35    1
    55    37    38    1
    56    37    44    1
    57    39    37    1
    58    39    40    1
    59    39    41    1
    60    39    42    1
    61    42    43    1
    62    42    72    1
    63    42    73    1
    64    43    74    1
    65    43    75    1
    66    44    76    1
    67    45    77    1
    68    46    78    1
    69    46    79    1
    70    47    80    1
    71    48    51    1
    72    48    50    1
    73    48    49    1
    74    50    81    1
    75    50    82    1
    76    51    54    1
    77    51    53    1
    78    51    52    1
    79    53    83    1
    80    54    55    1
    81    54    56    1
    82    54    57    1
    83    56    84    1
    84    57    59    1
    85    57    60    1
    86    57    58    1
    87    60    61    1
    88    60    85    1
    89    60    86    1
    90    61    87    1
    91    61    88    1
