2L1V_PRF_A_37
 OpenBabel03221817253D

 22 23  0  0  0  0  0  0  0  0999 V2000
    2.1533   -0.5955   -0.1156 N   0  0  0  0  0  0  0  0  0  0  0  0
    3.0518   -1.0337   -0.2204 H   0  0  0  0  0  0  0  0  0  0  0  0
    2.0572    0.7790   -0.0935 C   0  0  0  0  0  0  0  0  0  0  0  0
    0.9253    1.4237   -0.0315 N   0  0  0  0  0  0  0  0  0  0  0  0
   -0.1579    0.6127    0.0028 C   0  0  0  0  0  0  0  0  0  0  0  0
   -0.1995   -0.7620   -0.0443 C   0  0  0  0  0  0  0  0  0  0  0  0
    1.0672   -1.4516   -0.1488 C   0  0  0  0  0  0  0  0  0  0  0  0
    1.1965   -2.6649   -0.2886 O   0  0  0  0  0  0  0  0  0  0  0  0
   -1.5668   -1.1720    0.0103 C   0  0  0  0  0  0  0  0  0  0  0  0
   -2.1530   -2.5460   -0.0494 C   0  0  0  0  0  0  0  0  0  0  0  0
   -1.3409   -3.4990    0.6896 N   0  0  0  0  0  0  0  0  0  0  0  0
   -2.3012    0.0075    0.0732 C   0  0  0  0  0  0  0  0  0  0  0  0
   -1.4369    1.0744    0.0727 N   0  0  0  0  0  0  0  0  0  0  0  0
   -1.6900    2.0519    0.0997 H   0  0  0  0  0  0  0  0  0  0  0  0
    3.2269    1.4644   -0.1370 N   0  0  0  0  0  0  0  0  0  0  0  0
   -2.2522   -2.8575   -1.0945 H   0  0  0  0  0  0  0  0  0  0  0  0
   -3.1561   -2.5383    0.3923 H   0  0  0  0  0  0  0  0  0  0  0  0
   -0.3965   -3.5045    0.2852 H   0  0  0  0  0  0  0  0  0  0  0  0
   -1.6997   -4.4354    0.5166 H   0  0  0  0  0  0  0  0  0  0  0  0
   -3.3700    0.1732    0.1079 H   0  0  0  0  0  0  0  0  0  0  0  0
    4.0190    1.0494    0.3340 H   0  0  0  0  0  0  0  0  0  0  0  0
    3.0986    2.4445    0.0952 H   0  0  0  0  0  0  0  0  0  0  0  0
  1  2  1  0  0  0  0
  1  3  1  0  0  0  0
  1  7  1  0  0  0  0
  3  4  2  0  0  0  0
  3 15  1  0  0  0  0
  4  5  1  0  0  0  0
  5  6  2  0  0  0  0
  5 13  1  0  0  0  0
  6  7  1  0  0  0  0
  6  9  1  0  0  0  0
  7  8  2  0  0  0  0
  9 10  1  0  0  0  0
  9 12  2  0  0  0  0
 10 11  1  0  0  0  0
 10 16  1  0  0  0  0
 10 17  1  0  0  0  0
 11 18  1  0  0  0  0
 11 19  1  0  0  0  0
 12 13  1  0  0  0  0
 12 20  1  0  0  0  0
 13 14  1  0  0  0  0
 15 21  1  0  0  0  0
 15 22  1  0  0  0  0
M  END
$$$$
