@<TRIPOS>MOLECULE
3GOT_A2F_A_91
 15 16 0 0 0
SMALL
GASTEIGER

@<TRIPOS>ATOM
      1 F           1.1183    0.0705   -0.0097 F       1  UNL1       -0.1610
      2 C           2.4615    0.0863    0.0036 C.ar    1  UNL1        0.3128
      3 N           3.0380    1.2923   -0.0423 N.ar    1  UNL1       -0.1806
      4 C           4.3768    1.2194   -0.0284 C.ar    1  UNL1        0.1853
      5 C           5.0778    0.0291    0.0251 C.ar    1  UNL1        0.1253
      6 C           4.4041   -1.1716    0.0762 C.ar    1  UNL1        0.1480
      7 N           3.0652   -1.1223    0.0575 N.ar    1  UNL1       -0.1852
      8 N           5.0198   -2.4057    0.1527 N.pl3   1  UNL1       -0.3413
      9 N           6.3933    0.4007    0.0299 N.ar    1  UNL1       -0.3404
     10 H           7.1893   -0.2180    0.0765 H       1  UNL1        0.1669
     11 C           6.4363    1.7673   -0.0224 C.ar    1  UNL1        0.0963
     12 N           5.2310    2.2899   -0.0620 N.ar    1  UNL1       -0.2164
     13 H           5.9400   -2.5014   -0.2482 H       1  UNL1        0.1438
     14 H           4.3671   -3.1570   -0.0481 H       1  UNL1        0.1438
     15 H           7.3667    2.3209   -0.0263 H       1  UNL1        0.1027
@<TRIPOS>BOND
     1     1     2    1
     2     2     3   ar
     3     2     7   ar
     4     3     4   ar
     5     4     5   ar
     6     4    12   ar
     7     5     6   ar
     8     5     9   ar
     9     6     7   ar
    10     6     8    1
    11     8    13    1
    12     8    14    1
    13     9    10    1
    14     9    11   ar
    15    11    12   ar
    16    11    15    1
