3GOT_A2F_A_91
 OpenBabel03221817303D

 15 16  0  0  0  0  0  0  0  0999 V2000
    1.1183    0.0705   -0.0097 F   0  0  0  0  0  0  0  0  0  0  0  0
    2.4615    0.0863    0.0036 C   0  0  0  0  0  0  0  0  0  0  0  0
    3.0380    1.2923   -0.0423 N   0  0  0  0  0  0  0  0  0  0  0  0
    4.3768    1.2194   -0.0284 C   0  0  0  0  0  0  0  0  0  0  0  0
    5.0778    0.0291    0.0251 C   0  0  0  0  0  0  0  0  0  0  0  0
    4.4041   -1.1716    0.0762 C   0  0  0  0  0  0  0  0  0  0  0  0
    3.0652   -1.1223    0.0575 N   0  0  0  0  0  0  0  0  0  0  0  0
    5.0198   -2.4057    0.1527 N   0  0  0  0  0  0  0  0  0  0  0  0
    6.3933    0.4007    0.0299 N   0  0  0  0  0  0  0  0  0  0  0  0
    7.1893   -0.2180    0.0765 H   0  0  0  0  0  0  0  0  0  0  0  0
    6.4363    1.7673   -0.0224 C   0  0  0  0  0  0  0  0  0  0  0  0
    5.2310    2.2899   -0.0620 N   0  0  0  0  0  0  0  0  0  0  0  0
    5.9400   -2.5014   -0.2482 H   0  0  0  0  0  0  0  0  0  0  0  0
    4.3671   -3.1570   -0.0481 H   0  0  0  0  0  0  0  0  0  0  0  0
    7.3667    2.3209   -0.0263 H   0  0  0  0  0  0  0  0  0  0  0  0
  1  2  1  0  0  0  0
  2  3  2  0  0  0  0
  2  7  1  0  0  0  0
  3  4  1  0  0  0  0
  4  5  2  0  0  0  0
  4 12  1  0  0  0  0
  5  6  1  0  0  0  0
  5  9  1  0  0  0  0
  6  7  2  0  0  0  0
  6  8  1  0  0  0  0
  8 13  1  0  0  0  0
  8 14  1  0  0  0  0
  9 10  1  0  0  0  0
  9 11  1  0  0  0  0
 11 12  2  0  0  0  0
 11 15  1  0  0  0  0
M  END
$$$$
