REMARK  1 active torsions:
REMARK  status: ('A' for Active; 'I' for Inactive)
REMARK    1  A    between atoms: C_6  and  N_8 
ROOT
ATOM      1  F   UNL d   1       1.118   0.070  -0.010  0.00  0.00    -0.161 F 
ATOM      2  C   UNL d   1       2.462   0.086   0.004  0.00  0.00     0.313 A 
ATOM      3  N   UNL d   1       3.038   1.292  -0.042  0.00  0.00    -0.181 NA
ATOM      4  C   UNL d   1       4.377   1.219  -0.028  0.00  0.00     0.185 A 
ATOM      5  C   UNL d   1       5.078   0.029   0.025  0.00  0.00     0.127 A 
ATOM      6  C   UNL d   1       4.404  -1.172   0.076  0.00  0.00     0.156 A 
ATOM      7  N   UNL d   1       3.065  -1.122   0.058  0.00  0.00    -0.183 NA
ATOM      8  N   UNL d   1       6.393   0.401   0.030  0.00  0.00    -0.345 N 
ATOM      9  H   UNL d   1       7.189  -0.218   0.076  0.00  0.00     0.167 HD
ATOM     10  C   UNL d   1       6.436   1.767  -0.022  0.00  0.00     0.210 A 
ATOM     11  N   UNL d   1       5.231   2.290  -0.062  0.00  0.00    -0.222 NA
ENDROOT
BRANCH   6  12
ATOM     12  N   UNL d   1       5.020  -2.406   0.153  0.00  0.00    -0.382 N 
ATOM     13  H   UNL d   1       5.940  -2.501  -0.248  0.00  0.00     0.157 HD
ATOM     14  H   UNL d   1       4.367  -3.157  -0.048  0.00  0.00     0.157 HD
ENDBRANCH   6  12
TORSDOF 1
