3G4M_2BP_A_91
 OpenBabel03221817303D

 15 16  0  0  0  0  0  0  0  0999 V2000
   -1.4762    1.1189   -0.0079 N   0  0  0  0  0  0  0  0  0  0  0  0
   -1.7805    2.0806   -0.0326 H   0  0  0  0  0  0  0  0  0  0  0  0
   -2.2660    0.0019    0.0418 C   0  0  0  0  0  0  0  0  0  0  0  0
   -1.5515   -1.1049    0.0626 N   0  0  0  0  0  0  0  0  0  0  0  0
   -0.2452   -0.6800    0.0122 C   0  0  0  0  0  0  0  0  0  0  0  0
    0.9747   -1.3406   -0.0016 C   0  0  0  0  0  0  0  0  0  0  0  0
    2.1229   -0.6147   -0.0658 N   0  0  0  0  0  0  0  0  0  0  0  0
    2.0405    0.7283   -0.1257 C   0  0  0  0  0  0  0  0  0  0  0  0
    3.2380    1.4121   -0.1896 N   0  0  0  0  0  0  0  0  0  0  0  0
    0.9191    1.4668   -0.0902 N   0  0  0  0  0  0  0  0  0  0  0  0
   -0.1783    0.7006   -0.0319 C   0  0  0  0  0  0  0  0  0  0  0  0
   -3.3467    0.0582    0.0599 H   0  0  0  0  0  0  0  0  0  0  0  0
    1.0670   -2.4178    0.0326 H   0  0  0  0  0  0  0  0  0  0  0  0
    3.9773    0.8314    0.1814 H   0  0  0  0  0  0  0  0  0  0  0  0
    3.1305    2.3369    0.2011 H   0  0  0  0  0  0  0  0  0  0  0  0
  1  2  1  0  0  0  0
  1  3  1  0  0  0  0
  1 11  1  0  0  0  0
  3  4  2  0  0  0  0
  3 12  1  0  0  0  0
  4  5  1  0  0  0  0
  5  6  2  0  0  0  0
  5 11  1  0  0  0  0
  6  7  1  0  0  0  0
  6 13  1  0  0  0  0
  7  8  2  0  0  0  0
  8  9  1  0  0  0  0
  8 10  1  0  0  0  0
  9 14  1  0  0  0  0
  9 15  1  0  0  0  0
 10 11  2  0  0  0  0
M  END
$$$$
