@<TRIPOS>MOLECULE
3G4M_2BP_A_91
 15 16 0 0 0
SMALL
GASTEIGER

@<TRIPOS>ATOM
      1 N          -1.4762    1.1189   -0.0079 N.ar    1  UNL1       -0.3292
      2 H          -1.7805    2.0806   -0.0326 H       1  UNL1        0.1682
      3 C          -2.2660    0.0019    0.0418 C.ar    1  UNL1        0.0956
      4 N          -1.5515   -1.1049    0.0626 N.ar    1  UNL1       -0.2328
      5 C          -0.2452   -0.6800    0.0122 C.ar    1  UNL1        0.1258
      6 C           0.9747   -1.3406   -0.0016 C.ar    1  UNL1        0.0601
      7 N           2.1229   -0.6147   -0.0658 N.ar    1  UNL1       -0.2209
      8 C           2.0405    0.7283   -0.1257 C.ar    1  UNL1        0.2145
      9 N           3.2380    1.4121   -0.1896 N.pl3   1  UNL1       -0.3274
     10 N           0.9191    1.4668   -0.0902 N.ar    1  UNL1       -0.1952
     11 C          -0.1783    0.7006   -0.0319 C.ar    1  UNL1        0.1627
     12 H          -3.3467    0.0582    0.0599 H       1  UNL1        0.1027
     13 H           1.0670   -2.4178    0.0326 H       1  UNL1        0.0853
     14 H           3.9773    0.8314    0.1814 H       1  UNL1        0.1452
     15 H           3.1305    2.3369    0.2011 H       1  UNL1        0.1452
@<TRIPOS>BOND
     1     1     2    1
     2     1     3   ar
     3     1    11   ar
     4     3     4   ar
     5     3    12    1
     6     4     5   ar
     7     5     6   ar
     8     5    11   ar
     9     6     7   ar
    10     6    13    1
    11     7     8   ar
    12     8     9    1
    13     8    10   ar
    14     9    14    1
    15     9    15    1
    16    10    11   ar
