ligand.pdb
 OpenBabel03221816163D

 24 23  0  0  1  0  0  0  0  0999 V2000
   32.3530   15.9150   19.3550 N   0  0  0  0  0  0  0  0  0  0  0  0
   31.8170   16.7650   20.4610 C   0  0  2  0  0  0  0  0  0  0  0  0
   32.9030   17.1780   21.4610 C   0  0  0  0  0  0  0  0  0  0  0  0
   34.1060   16.9600   21.2530 O   0  0  0  0  0  0  0  0  0  0  0  0
   30.6490   16.0700   21.1660 C   0  0  0  0  0  0  0  0  0  0  0  0
   29.3810   16.0540   20.3430 C   0  0  0  0  0  0  0  0  0  0  0  0
   28.2790   15.2810   21.0260 C   0  0  0  0  0  0  0  0  0  0  0  0
   27.0070   15.2750   20.1850 C   0  0  0  0  0  0  0  0  0  0  0  0
   27.1260   14.4740   18.9370 N   0  0  0  0  0  0  0  0  0  0  0  0
   32.6150   17.7800   22.5000 O   0  0  0  0  0  0  0  0  0  0  0  0
   33.1286   16.3973   18.9008 H   0  0  0  0  0  0  0  0  0  0  0  0
   31.6153   15.7398   18.6728 H   0  0  0  0  0  0  0  0  0  0  0  0
   31.4528   17.6668   20.0149 H   0  0  0  0  0  0  0  0  0  0  0  0
   30.4521   16.5831   22.0841 H   0  0  0  0  0  0  0  0  0  0  0  0
   30.9358   15.0520   21.3280 H   0  0  0  0  0  0  0  0  0  0  0  0
   29.5880   15.5992   19.3968 H   0  0  0  0  0  0  0  0  0  0  0  0
   29.0515   17.0646   20.2202 H   0  0  0  0  0  0  0  0  0  0  0  0
   28.0696   15.7341   21.9724 H   0  0  0  0  0  0  0  0  0  0  0  0
   28.6043   14.2699   21.1557 H   0  0  0  0  0  0  0  0  0  0  0  0
   26.7720   16.2843   19.9188 H   0  0  0  0  0  0  0  0  0  0  0  0
   26.2393   14.8231   20.7777 H   0  0  0  0  0  0  0  0  0  0  0  0
   27.8515   14.8756   18.3431 H   0  0  0  0  0  0  0  0  0  0  0  0
   26.2353   14.4845   18.4400 H   0  0  0  0  0  0  0  0  0  0  0  0
   31.7189   17.9674   22.6999 H   0  0  0  0  0  0  0  0  0  0  0  0
  1 11  1  0  0  0  0
  1 12  1  0  0  0  0
  2  3  1  0  0  0  0
  2  5  1  0  0  0  0
  2  1  1  0  0  0  0
  2 13  1  6  0  0  0
  3  4  2  0  0  0  0
  3 10  1  0  0  0  0
  5  6  1  0  0  0  0
  5 14  1  0  0  0  0
  5 15  1  0  0  0  0
  6  7  1  0  0  0  0
  6 16  1  0  0  0  0
  6 17  1  0  0  0  0
  7  8  1  0  0  0  0
  7 18  1  0  0  0  0
  7 19  1  0  0  0  0
  8  9  1  0  0  0  0
  8 20  1  0  0  0  0
  8 21  1  0  0  0  0
  9 22  1  0  0  0  0
  9 23  1  0  0  0  0
 10 24  1  0  0  0  0
M  END
>  <HEADER>
RNA                                     21-JUN-08   3DIY

>  <TITLE>
CRYSTALLIZATION OF THE THERMOTOGA MARITIMA LYSINE
2 RIBOSWITCH BOUND TO LYSINE, MN2+ SOAK

>  <COMPND>
MOL_ID: 1;
2 MOLECULE: RNA (174-MER);
3 CHAIN: A;
4 ENGINEERED: YES

>  <SOURCE>
MOL_ID: 1;
2 SYNTHETIC: YES;
3 OTHER_DETAILS: IN VITRO TRANSCRIBED RNA FROM THE
4 THERMOTOGA MARITIMA MSB8 ASD GENE

>  <KEYWDS>
RIBOSWITCH, LYSINE, RNA

>  <EXPDTA>
X-RAY DIFFRACTION

>  <AUTHOR>
A.A.SERGANOV

>  <REVDAT>
3   24-FEB-09 3DIY    1       VERSN
2   11-NOV-08 3DIY    1       JRNL
1   16-SEP-08 3DIY    0

>  <JRNL>
AUTH   A.SERGANOV,L.HUANG,D.J.PATEL
TITL   STRUCTURAL INSIGHTS INTO AMINO ACID BINDING AND
TITL 2 GENE CONTROL BY A LYSINE RIBOSWITCH.
REF    NATURE                        V. 455  1263 2008
REFN                   ISSN 0028-0836
PMID   18784651
DOI    10.1038/NATURE07326

>  <REMARK>
1
2
2 RESOLUTION.    2.71 ANGSTROMS.
3
3 REFINEMENT.
3   PROGRAM     : REFMAC 5.2.0019
3   AUTHORS     : MURSHUDOV,VAGIN,DODSON
3
3    REFINEMENT TARGET : MAXIMUM LIKELIHOOD
3
3  DATA USED IN REFINEMENT.
3   RESOLUTION RANGE HIGH (ANGSTROMS) : 2.71
3   RESOLUTION RANGE LOW  (ANGSTROMS) : 20.00
3   DATA CUTOFF            (SIGMA(F)) : 0.000
3   COMPLETENESS FOR RANGE        (%) : 96.3
3   NUMBER OF REFLECTIONS             : 15510
3
3  FIT TO DATA USED IN REFINEMENT.
3   CROSS-VALIDATION METHOD          : THROUGHOUT
3   FREE R VALUE TEST SET SELECTION  : RANDOM
3   R VALUE     (WORKING + TEST SET) : 0.191
3   R VALUE            (WORKING SET) : 0.189
3   FREE R VALUE                     : 0.237
3   FREE R VALUE TEST SET SIZE   (%) : 5.000
3   FREE R VALUE TEST SET COUNT      : 822
3
3  FIT IN THE HIGHEST RESOLUTION BIN.
3   TOTAL NUMBER OF BINS USED           : 20
3   BIN RESOLUTION RANGE HIGH       (A) : 2.71
3   BIN RESOLUTION RANGE LOW        (A) : 2.78
3   REFLECTION IN BIN     (WORKING SET) : 1057
3   BIN COMPLETENESS (WORKING+TEST) (%) : 93.44
3   BIN R VALUE           (WORKING SET) : 0.4140
3   BIN FREE R VALUE SET COUNT          : 69
3   BIN FREE R VALUE                    : 0.5450
3
3  NUMBER OF NON-HYDROGEN ATOMS USED IN REFINEMENT.
3   PROTEIN ATOMS            : 0
3   NUCLEIC ACID ATOMS       : 3756
3   HETEROGEN ATOMS          : 21
3   SOLVENT ATOMS            : 37
3
3  B VALUES.
3   FROM WILSON PLOT           (A**2) : NULL
3   MEAN B VALUE      (OVERALL, A**2) : 35.04
3   OVERALL ANISOTROPIC B VALUE.
3    B11 (A**2) : 0.20000
3    B22 (A**2) : -1.91000
3    B33 (A**2) : 1.71000
3    B12 (A**2) : 0.00000
3    B13 (A**2) : 0.00000
3    B23 (A**2) : 0.00000
3
3  ESTIMATED OVERALL COORDINATE ERROR.
3   ESU BASED ON R VALUE                            (A): 2.039
3   ESU BASED ON FREE R VALUE                       (A): 0.327
3   ESU BASED ON MAXIMUM LIKELIHOOD                 (A): 0.233
3   ESU FOR B VALUES BASED ON MAXIMUM LIKELIHOOD (A**2): 24.836
3
3 CORRELATION COEFFICIENTS.
3   CORRELATION COEFFICIENT FO-FC      : 0.950
3   CORRELATION COEFFICIENT FO-FC FREE : 0.916
3
3  RMS DEVIATIONS FROM IDEAL VALUES        COUNT    RMS    WEIGHT
3   BOND LENGTHS REFINED ATOMS        (A):  4213 ; 0.006 ; 0.021
3   BOND LENGTHS OTHERS               (A):  NULL ;  NULL ;  NULL
3   BOND ANGLES REFINED ATOMS   (DEGREES):  6572 ; 1.239 ; 2.999
3   BOND ANGLES OTHERS          (DEGREES):  NULL ;  NULL ;  NULL
3   TORSION ANGLES, PERIOD 1    (DEGREES):  NULL ;  NULL ;  NULL
3   TORSION ANGLES, PERIOD 2    (DEGREES):  NULL ;  NULL ;  NULL
3   TORSION ANGLES, PERIOD 3    (DEGREES):     4 ; 8.221 ;15.000
3   TORSION ANGLES, PERIOD 4    (DEGREES):  NULL ;  NULL ;  NULL
3   CHIRAL-CENTER RESTRAINTS       (A**3):   870 ; 0.051 ; 0.200
3   GENERAL PLANES REFINED ATOMS      (A):  1838 ; 0.003 ; 0.020
3   GENERAL PLANES OTHERS             (A):  NULL ;  NULL ;  NULL
3   NON-BONDED CONTACTS REFINED ATOMS (A):  1455 ; 0.155 ; 0.200
3   NON-BONDED CONTACTS OTHERS        (A):  NULL ;  NULL ;  NULL
3   NON-BONDED TORSION REFINED ATOMS  (A):  2586 ; 0.265 ; 0.200
3   NON-BONDED TORSION OTHERS         (A):  NULL ;  NULL ;  NULL
3   H-BOND (X...Y) REFINED ATOMS      (A):   137 ; 0.134 ; 0.200
3   H-BOND (X...Y) OTHERS             (A):  NULL ;  NULL ;  NULL
3   POTENTIAL METAL-ION REFINED ATOMS (A):     4 ; 0.147 ; 0.200
3   POTENTIAL METAL-ION OTHERS        (A):  NULL ;  NULL ;  NULL
3   SYMMETRY VDW REFINED ATOMS        (A):    33 ; 0.126 ; 0.200
3   SYMMETRY VDW OTHERS               (A):  NULL ;  NULL ;  NULL
3   SYMMETRY H-BOND REFINED ATOMS     (A):     8 ; 0.171 ; 0.200
3   SYMMETRY H-BOND OTHERS            (A):  NULL ;  NULL ;  NULL
3   SYMMETRY METAL-ION REFINED ATOMS  (A):  NULL ;  NULL ;  NULL
3   SYMMETRY METAL-ION OTHERS         (A):  NULL ;  NULL ;  NULL
3
3  ISOTROPIC THERMAL FACTOR RESTRAINTS.     COUNT   RMS    WEIGHT
3   MAIN-CHAIN BOND REFINED ATOMS  (A**2):     5 ; 0.123 ; 1.500
3   MAIN-CHAIN BOND OTHER ATOMS    (A**2):  NULL ;  NULL ;  NULL
3   MAIN-CHAIN ANGLE REFINED ATOMS (A**2):     7 ; 0.312 ; 2.000
3   SIDE-CHAIN BOND REFINED ATOMS  (A**2):  4450 ; 0.666 ; 3.000
3   SIDE-CHAIN ANGLE REFINED ATOMS (A**2):  6565 ; 1.045 ; 4.500
3
3 ANISOTROPIC THERMAL FACTOR RESTRAINTS.    COUNT   RMS   WEIGHT
3   RIGID-BOND RESTRAINTS          (A**2):  NULL ;  NULL ;  NULL
3   SPHERICITY; FREE ATOMS         (A**2):  NULL ;  NULL ;  NULL
3   SPHERICITY; BONDED ATOMS       (A**2):  NULL ;  NULL ;  NULL
3
3  NCS RESTRAINTS STATISTICS
3   NUMBER OF DIFFERENT NCS GROUPS : NULL
3
3  TLS DETAILS
3   NUMBER OF TLS GROUPS  : 5
3
3   TLS GROUP : 1
3    NUMBER OF COMPONENTS GROUP : 2
3    COMPONENTS        C SSSEQI   TO  C SSSEQI
3    RESIDUE RANGE :   A     1        A    11
3    RESIDUE RANGE :   A   163        A   174
3    ORIGIN FOR THE GROUP (A):  29.2760  -1.9220  18.5270
3    T TENSOR
3      T11:   0.0977 T22:  -0.0557
3      T33:   0.0023 T12:   0.0634
3      T13:   0.0204 T23:  -0.0029
3    L TENSOR
3      L11:   1.8067 L22:   4.9210
3      L33:   5.0485 L12:   1.4330
3      L13:   1.4091 L23:  -0.6811
3    S TENSOR
3      S11:   0.1233 S12:   0.2358 S13:  -0.1968
3      S21:  -0.4825 S22:  -0.0571 S23:  -0.2060
3      S31:   0.7162 S32:  -0.0995 S33:  -0.0662
3
3   TLS GROUP : 2
3    NUMBER OF COMPONENTS GROUP : 1
3    COMPONENTS        C SSSEQI   TO  C SSSEQI
3    RESIDUE RANGE :   A    12        A    79
3    ORIGIN FOR THE GROUP (A):   6.7770  47.1370  21.3370
3    T TENSOR
3      T11:   0.2406 T22:   0.0160
3      T33:   0.2227 T12:   0.1548
3      T13:  -0.0324 T23:  -0.0087
3    L TENSOR
3      L11:   1.3625 L22:   0.3026
3      L33:   1.7578 L12:   0.3523
3      L13:   0.7993 L23:   0.6135
3    S TENSOR
3      S11:  -0.4022 S12:  -0.0440 S13:   0.6841
3      S21:  -0.0269 S22:  -0.0175 S23:   0.0235
3      S31:  -0.6996 S32:  -0.4138 S33:   0.4197
3
3   TLS GROUP : 3
3    NUMBER OF COMPONENTS GROUP : 1
3    COMPONENTS        C SSSEQI   TO  C SSSEQI
3    RESIDUE RANGE :   A    80        A   113
3    ORIGIN FOR THE GROUP (A):   8.4070  27.1710  10.8310
3    T TENSOR
3      T11:  -0.0148 T22:  -0.0015
3      T33:   0.0223 T12:   0.0590
3      T13:  -0.0008 T23:  -0.0108
3    L TENSOR
3      L11:   3.0855 L22:   1.3328
3      L33:   0.6995 L12:  -1.7065
3      L13:   1.1435 L23:  -0.8346
3    S TENSOR
3      S11:   0.0802 S12:   0.1332 S13:  -0.1514
3      S21:   0.0269 S22:  -0.0289 S23:   0.2007
3      S31:  -0.0810 S32:   0.0726 S33:  -0.0513
3
3   TLS GROUP : 4
3    NUMBER OF COMPONENTS GROUP : 1
3    COMPONENTS        C SSSEQI   TO  C SSSEQI
3    RESIDUE RANGE :   A   114        A   140
3    ORIGIN FOR THE GROUP (A):  29.6560  33.7620  14.8460
3    T TENSOR
3      T11:  -0.0249 T22:  -0.0611
3      T33:  -0.0212 T12:   0.0450
3      T13:   0.0172 T23:   0.0570
3    L TENSOR
3      L11:   4.7922 L22:   2.7999
3      L33:   1.6373 L12:  -2.2392
3      L13:   0.8916 L23:  -0.0686
3    S TENSOR
3      S11:   0.1151 S12:   0.4844 S13:   0.3956
3      S21:  -0.0912 S22:  -0.2431 S23:  -0.3034
3      S31:  -0.2298 S32:   0.0102 S33:   0.1279
3
3   TLS GROUP : 5
3    NUMBER OF COMPONENTS GROUP : 1
3    COMPONENTS        C SSSEQI   TO  C SSSEQI
3    RESIDUE RANGE :   A   141        A   162
3    ORIGIN FOR THE GROUP (A):  50.2110   8.6210  15.0630
3    T TENSOR
3      T11:   0.0464 T22:   0.0202
3      T33:   0.2196 T12:   0.0892
3      T13:   0.0091 T23:   0.1362
3    L TENSOR
3      L11:   8.6659 L22:   2.1708
3      L33:   2.5875 L12:   1.9908
3      L13:  -2.4290 L23:   1.0429
3    S TENSOR
3      S11:  -0.3029 S12:  -0.1971 S13:  -1.0854
3      S21:   0.2895 S22:  -0.1811 S23:  -0.5431
3      S31:   0.4803 S32:   0.3467 S33:   0.4840
3
3  BULK SOLVENT MODELLING.
3   METHOD USED : MASK
3   PARAMETERS FOR MASK CALCULATION
3   VDW PROBE RADIUS   : 1.40
3   ION PROBE RADIUS   : 0.80
3   SHRINKAGE RADIUS   : 0.80
3
3  OTHER REFINEMENT REMARKS: HYDROGENS HAVE BEEN ADDED IN THE
3  RIDING POSITIONS
4
4 3DIY COMPLIES WITH FORMAT V. 3.15, 01-DEC-08
100
100 THIS ENTRY HAS BEEN PROCESSED BY RCSB ON 08-JUL-08.
100 THE RCSB ID CODE IS RCSB048095.
200
200 EXPERIMENTAL DETAILS
200  EXPERIMENT TYPE                : X-RAY DIFFRACTION
200  DATE OF DATA COLLECTION        : 17-MAR-08
200  TEMPERATURE           (KELVIN) : 100
200  PH                             : 5.7
200  NUMBER OF CRYSTALS USED        : 1
200
200  SYNCHROTRON              (Y/N) : Y
200  RADIATION SOURCE               : APS
200  BEAMLINE                       : 24-ID-C
200  X-RAY GENERATOR MODEL          : NULL
200  MONOCHROMATIC OR LAUE    (M/L) : M
200  WAVELENGTH OR RANGE        (A) : 1.24
200  MONOCHROMATOR                  : NULL
200  OPTICS                         : NULL
200
200  DETECTOR TYPE                  : CCD
200  DETECTOR MANUFACTURER          : ADSC QUANTUM 4
200  INTENSITY-INTEGRATION SOFTWARE : HKL-2000
200  DATA SCALING SOFTWARE          : HKL-2000
200
200  NUMBER OF UNIQUE REFLECTIONS   : 16392
200  RESOLUTION RANGE HIGH      (A) : 2.700
200  RESOLUTION RANGE LOW       (A) : 20.000
200  REJECTION CRITERIA  (SIGMA(I)) : 0.000
200
200 OVERALL.
200  COMPLETENESS FOR RANGE     (%) : 96.6
200  DATA REDUNDANCY                : 5.900
200  R MERGE                    (I) : 0.09500
200  R SYM                      (I) : NULL
200  <I/SIGMA(I)> FOR THE DATA SET  : 21.8000
200
200 IN THE HIGHEST RESOLUTION SHELL.
200  HIGHEST RESOLUTION SHELL, RANGE HIGH (A) : 2.70
200  HIGHEST RESOLUTION SHELL, RANGE LOW  (A) : 2.80
200  COMPLETENESS FOR SHELL     (%) : 95.9
200  DATA REDUNDANCY IN SHELL       : 5.60
200  R MERGE FOR SHELL          (I) : 0.58800
200  R SYM FOR SHELL            (I) : NULL
200  <I/SIGMA(I)> FOR SHELL         : 2.800
200
200 DIFFRACTION PROTOCOL: SINGLE WAVELENGTH
200 METHOD USED TO DETERMINE THE STRUCTURE: FOURIER SYNTHESIS
200 SOFTWARE USED: REFMAC
200 STARTING MODEL: PDB ENTRY 3DIL
200
200 REMARK: NULL
280
280 CRYSTAL
280 SOLVENT CONTENT, VS   (%): 53.42
280 MATTHEWS COEFFICIENT, VM (ANGSTROMS**3/DA): 2.64
280
280 CRYSTALLIZATION CONDITIONS: 18% PEG 4000, 0.1M SODIUM CITRATE,
280  20% ISOPROPANOL, PH 5.7, VAPOR DIFFUSION, HANGING DROP,
280  TEMPERATURE 293K
290
290 CRYSTALLOGRAPHIC SYMMETRY
290 SYMMETRY OPERATORS FOR SPACE GROUP: P 21 21 21
290
290      SYMOP   SYMMETRY
290     NNNMMM   OPERATOR
290       1555   X,Y,Z
290       2555   -X+1/2,-Y,Z+1/2
290       3555   -X,Y+1/2,-Z+1/2
290       4555   X+1/2,-Y+1/2,-Z
290
290     WHERE NNN -> OPERATOR NUMBER
290           MMM -> TRANSLATION VECTOR
290
290 CRYSTALLOGRAPHIC SYMMETRY TRANSFORMATIONS
290 THE FOLLOWING TRANSFORMATIONS OPERATE ON THE ATOM/HETATM
290 RECORDS IN THIS ENTRY TO PRODUCE CRYSTALLOGRAPHICALLY
290 RELATED MOLECULES.
290   SMTRY1   1  1.000000  0.000000  0.000000        0.00000
290   SMTRY2   1  0.000000  1.000000  0.000000        0.00000
290   SMTRY3   1  0.000000  0.000000  1.000000        0.00000
290   SMTRY1   2 -1.000000  0.000000  0.000000       27.09650
290   SMTRY2   2  0.000000 -1.000000  0.000000        0.00000
290   SMTRY3   2  0.000000  0.000000  1.000000       70.26100
290   SMTRY1   3 -1.000000  0.000000  0.000000        0.00000
290   SMTRY2   3  0.000000  1.000000  0.000000       39.33100
290   SMTRY3   3  0.000000  0.000000 -1.000000       70.26100
290   SMTRY1   4  1.000000  0.000000  0.000000       27.09650
290   SMTRY2   4  0.000000 -1.000000  0.000000       39.33100
290   SMTRY3   4  0.000000  0.000000 -1.000000        0.00000
290
290 REMARK: NULL
300
300 BIOMOLECULE: 1
300 SEE REMARK 350 FOR THE AUTHOR PROVIDED AND/OR PROGRAM
300 GENERATED ASSEMBLY INFORMATION FOR THE STRUCTURE IN
300 THIS ENTRY. THE REMARK MAY ALSO PROVIDE INFORMATION ON
300 BURIED SURFACE AREA.
350
350 COORDINATES FOR A COMPLETE MULTIMER REPRESENTING THE KNOWN
350 BIOLOGICALLY SIGNIFICANT OLIGOMERIZATION STATE OF THE
350 MOLECULE CAN BE GENERATED BY APPLYING BIOMT TRANSFORMATIONS
350 GIVEN BELOW.  BOTH NON-CRYSTALLOGRAPHIC AND
350 CRYSTALLOGRAPHIC OPERATIONS ARE GIVEN.
350
350 BIOMOLECULE: 1
350 AUTHOR DETERMINED BIOLOGICAL UNIT: MONOMERIC
350 SOFTWARE DETERMINED QUATERNARY STRUCTURE: MONOMERIC
350 SOFTWARE USED: PISA
350 APPLY THE FOLLOWING TO CHAINS: A
350   BIOMT1   1  1.000000  0.000000  0.000000        0.00000
350   BIOMT2   1  0.000000  1.000000  0.000000        0.00000
350   BIOMT3   1  0.000000  0.000000  1.000000        0.00000
500
500 GEOMETRY AND STEREOCHEMISTRY
500 SUBTOPIC: COVALENT BOND ANGLES
500
500 THE STEREOCHEMICAL PARAMETERS OF THE FOLLOWING RESIDUES
500 HAVE VALUES WHICH DEVIATE FROM EXPECTED VALUES BY MORE
500 THAN 6*RMSD (M=MODEL NUMBER; RES=RESIDUE NAME; C=CHAIN
500 IDENTIFIER; SSEQ=SEQUENCE NUMBER; I=INSERTION CODE).
500
500 STANDARD TABLE:
500 FORMAT: (10X,I3,1X,A3,1X,A1,I4,A1,3(1X,A4,2X),12X,F5.1)
500
500 EXPECTED VALUES PROTEIN: ENGH AND HUBER, 1999
500 EXPECTED VALUES NUCLEIC ACID: CLOWNEY ET AL 1996
500
500  M RES CSSEQI ATM1   ATM2   ATM3
500      G A  12   O4' -  C1' -  N9  ANGL. DEV. =   4.4 DEGREES
500      U A  52   C3' -  O3' -  P   ANGL. DEV. =   8.0 DEGREES
500      U A 153   C1' -  O4' -  C4' ANGL. DEV. =  -4.5 DEGREES
500      U A 153   O4' -  C1' -  N1  ANGL. DEV. =   4.5 DEGREES
500
500 REMARK: NULL
620
620 METAL COORDINATION
620  (M=MODEL NUMBER; RES=RESIDUE NAME; C=CHAIN IDENTIFIER;
620  SSEQ=SEQUENCE NUMBER; I=INSERTION CODE):
620
620 COORDINATION ANGLES FOR:  M RES CSSEQI METAL
620                              NA A 208  NA
620 N RES CSSEQI ATOM
620 1   G A   9   O6
620 2 HOH A 300   O   138.6
620 N                    1
620
620 COORDINATION ANGLES FOR:  M RES CSSEQI METAL
620                              NA A 205  NA
620 N RES CSSEQI ATOM
620 1   G A  11   OP2
620 2   G A  12   O6   67.0
620 N                    1
620
620 COORDINATION ANGLES FOR:  M RES CSSEQI METAL
620                               K A 200   K
620 N RES CSSEQI ATOM
620 1   G A  11   O2'
620 2 LYS A 175   OXT  68.7
620 N                    1
620
620 COORDINATION ANGLES FOR:  M RES CSSEQI METAL
620                              NA A 201  NA
620 N RES CSSEQI ATOM
620 1   G A  20   O6
620 2   G A  71   O6   76.4
620 3 HOH A 326   O    73.0  68.8
620 N                    1     2
620
620 COORDINATION ANGLES FOR:  M RES CSSEQI METAL
620                              NA A 202  NA
620 N RES CSSEQI ATOM
620 1   G A  68   N7
620 2   G A  69   O6   88.3
620 3 HOH A 312   O    76.2  67.7
620 N                    1     2
620
620 COORDINATION ANGLES FOR:  M RES CSSEQI METAL
620                              NA A 203  NA
620 N RES CSSEQI ATOM
620 1   A A  72   OP2
620 2   G A  73   N7   84.7
620 3 HOH A 315   O   136.6 134.2
620 4 HOH A 322   O    79.7 153.5  56.9
620 N                    1     2     3
620
620 COORDINATION ANGLES FOR:  M RES CSSEQI METAL
620                              NA A 207  NA
620 N RES CSSEQI ATOM
620 1   G A  80   N7
620 2   A A 164   OP1  93.8
620 3 HOH A 329   O    65.5  92.3
620 N                    1     2
800
800 SITE
800 SITE_IDENTIFIER: AC1
800 EVIDENCE_CODE: SOFTWARE
800 SITE_DESCRIPTION: BINDING SITE FOR RESIDUE K A 200
800 SITE_IDENTIFIER: AC2
800 EVIDENCE_CODE: SOFTWARE
800 SITE_DESCRIPTION: BINDING SITE FOR RESIDUE NA A 201
800 SITE_IDENTIFIER: AC3
800 EVIDENCE_CODE: SOFTWARE
800 SITE_DESCRIPTION: BINDING SITE FOR RESIDUE NA A 202
800 SITE_IDENTIFIER: AC4
800 EVIDENCE_CODE: SOFTWARE
800 SITE_DESCRIPTION: BINDING SITE FOR RESIDUE NA A 203
800 SITE_IDENTIFIER: AC5
800 EVIDENCE_CODE: SOFTWARE
800 SITE_DESCRIPTION: BINDING SITE FOR RESIDUE NA A 205
800 SITE_IDENTIFIER: AC6
800 EVIDENCE_CODE: SOFTWARE
800 SITE_DESCRIPTION: BINDING SITE FOR RESIDUE NA A 207
800 SITE_IDENTIFIER: AC7
800 EVIDENCE_CODE: SOFTWARE
800 SITE_DESCRIPTION: BINDING SITE FOR RESIDUE NA A 208
800 SITE_IDENTIFIER: AC8
800 EVIDENCE_CODE: SOFTWARE
800 SITE_DESCRIPTION: BINDING SITE FOR RESIDUE LYS A 175
900
900 RELATED ENTRIES
900 RELATED ID: 3DIG   RELATED DB: PDB
900 RELATED ID: 3DIL   RELATED DB: PDB
900 RELATED ID: 3DIM   RELATED DB: PDB
900 RELATED ID: 3DIO   RELATED DB: PDB
900 RELATED ID: 3DIQ   RELATED DB: PDB
900 RELATED ID: 3DIR   RELATED DB: PDB
900 RELATED ID: 3DIS   RELATED DB: PDB
900 RELATED ID: 3DIX   RELATED DB: PDB
900 RELATED ID: 3DIZ   RELATED DB: PDB
900 RELATED ID: 3DJ0   RELATED DB: PDB
900 RELATED ID: 3DJ2   RELATED DB: PDB

>  <DBREF>
3DIY A    1   174  PDB    3DIY     3DIY             1    174

>  <SEQRES>
1 A  174  GDP   G   C   C   G   A   C   G   G   A   G   G   C
2 A  174    G   C   G   C   C   C   G   A   G   A   U   G   A
3 A  174    G   U   A   G   G   C   U   G   U   C   C   C   A
4 A  174    U   C   A   G   G   G   G   A   G   G   A   A   U
5 A  174    C   G   G   G   G   A   C   G   G   C   U   G   A
6 A  174    A   A   G   G   C   G   A   G   G   G   C   G   C
7 A  174    C   G   A   A   G   G   G   U   G   C   A   G   A
8 A  174    G   U   U   C   C   U   C   C   C   G   C   U   C
9 A  174    U   G   C   A   U   G   C   C   U   G   G   G   G
10 A  174    G   U   A   U   G   G   G   G   A   A   U   A   C
11 A  174    C   C   A   U   A   C   C   A   C   U   G   U   C
12 A  174    A   C   G   G   A   G   G   U   C   U   C   U   C
13 A  174    C   G   U   G   G   A   G   A   G   C   C   G   U
14 A  174    C   G   G   U CCC

>  <MODRES>
3DIY GDP A    1    G  GUANOSINE-5'-DIPHOSPHATE
3DIY CCC A  174    C

>  <HET>
GDP  A   1      28
CCC  A 174      23
K  A 200       1
NA  A 201       1
NA  A 202       1
NA  A 203       1
NA  A 204       1
NA  A 205       1
NA  A 206       1
NA  A 207       1
NA  A 208       1
MN  A 250       1
MN  A 251       1
LYS  A 175      10

>  <HETNAM>
GDP GUANOSINE-5'-DIPHOSPHATE
CCC CYTIDINE-5'-PHOSPHATE-2',3'-CYCLIC PHOSPHATE
K POTASSIUM ION
NA SODIUM ION
MN MANGANESE (II) ION
LYS LYSINE

>  <FORMUL>
1  GDP    C10 H15 N5 O11 P2
1  CCC    C9 H13 N3 O10 P2
2    K    K 1+
3   NA    8(NA 1+)
11   MN    2(MN 2+)
13  LYS    C6 H15 N2 O2 1+
14  HOH   *37(H2 O)

>  <LINK>
O3' GDP A   1                 P     G A   2     1555   1555  1.60
O3'   U A 173                 P   CCC A 174     1555   1555  1.60
O6    G A   9                NA    NA A 208     1555   1555  2.74
OP2   G A  11                NA    NA A 205     1555   1555  2.84
O2'   G A  11                 K     K A 200     1555   1555  2.96
O6    G A  12                NA    NA A 205     1555   1555  2.77
O6    G A  20                NA    NA A 201     1555   1555  2.52
N7    G A  68                NA    NA A 202     1555   1555  2.84
O6    G A  69                NA    NA A 202     1555   1555  2.93
O6    G A  71                NA    NA A 201     1555   1555  2.51
OP2   A A  72                NA    NA A 203     1555   1555  2.18
N7    G A  73                NA    NA A 203     1555   1555  2.86
N7    G A  80                NA    NA A 207     1555   1555  2.73
OP1   A A 164                NA    NA A 207     1555   1555  2.23
K     K A 200                 OXT LYS A 175     1555   1555  2.78
NA    NA A 201                 O   HOH A 326     1555   1555  2.49
NA    NA A 202                 O   HOH A 312     1555   1555  2.63
NA    NA A 203                 O   HOH A 315     1555   1555  2.95
NA    NA A 203                 O   HOH A 322     1555   1555  2.81
NA    NA A 206                 O   HOH A 311     1555   1555  2.94
NA    NA A 207                 O   HOH A 329     1555   1555  2.38
NA    NA A 208                 O   HOH A 300     1555   1555  2.59

>  <SITE>
1 AC1  1 LYS A 175
1 AC2  2 HOH A 325  HOH A 326
1 AC3  1 HOH A 312
1 AC4  3 HOH A 315  HOH A 322  HOH A 323
1 AC5  1 HOH A 336
1 AC6  1 HOH A 329
1 AC7  1 HOH A 300
1 AC8  1 HOH A 331

>  <ORIGX1>
1.000000  0.000000  0.000000        0.00000

>  <ORIGX2>
0.000000  1.000000  0.000000        0.00000

>  <ORIGX3>
0.000000  0.000000  1.000000        0.00000

>  <SCALE1>
0.018453  0.000000  0.000000        0.00000

>  <SCALE2>
0.000000  0.012713  0.000000        0.00000

>  <SCALE3>
0.000000  0.000000  0.007116        0.00000

$$$$
