@<TRIPOS>MOLECULE
ligand.pdb
 10 9 0 0 0
SMALL
GASTEIGER

@<TRIPOS>ATOM
      1 N          32.3530   15.9150   19.3550 N.3     1  LYS1       -0.1208
      2 CA         31.8170   16.7650   20.4610 C.3     1  LYS1        0.1943
      3 C          32.9030   17.1780   21.4610 C.2     1  LYS1        0.3819
      4 O          34.1060   16.9600   21.2530 O.co2   1  LYS1       -0.2441
      5 CB         30.6490   16.0700   21.1660 C.3     1  LYS1        0.0307
      6 CG         29.3810   16.0540   20.3430 C.3     1  LYS1        0.0036
      7 CD         28.2790   15.2810   21.0260 C.3     1  LYS1        0.0206
      8 CE         27.0070   15.2750   20.1850 C.3     1  LYS1        0.1093
      9 NZ         27.1260   14.4740   18.9370 N.3     1  LYS1       -0.1314
     10 OXT        32.6150   17.7800   22.5000 O.co2   1  LYS1       -0.2441
@<TRIPOS>BOND
     1     2     3    1
     2     2     5    1
     3     2     1    1
     4     3     4   ar
     5     3    10   ar
     6     5     6    1
     7     6     7    1
     8     7     8    1
     9     8     9    1
