@<TRIPOS>MOLECULE
3DIQ_HRG_A_175
 29 28 0 0 0
SMALL
GASTEIGER

@<TRIPOS>ATOM
      1 N1          2.4882    1.5046    0.8922 N.3     1  <1>        -0.3184
      2 C1          2.2816    0.3982   -0.0385 C.3     1  <1>         0.1032
      3 H1          2.5360    0.7398   -1.0502 H       1  <1>         0.0574
      4 C2          3.1015   -0.8488    0.3242 C.3     1  <1>        -0.0273
      5 C3          4.6099   -0.6106    0.4801 C.3     1  <1>        -0.0483
      6 C4          5.3339   -0.4469   -0.8579 C.3     1  <1>        -0.0222
      7 C5          6.8211   -0.1268   -0.6819 C.3     1  <1>         0.0646
      8 N2          7.5820   -1.3458   -0.4060 N.pl3   1  <1>        -0.2761
      9 C6          8.9861   -1.2775   -0.3017 C.cat   1  <1>         0.3762
     10 N3          9.7316   -1.0104   -1.3460 N.pl3   1  <1>        -0.1298
     11 N4          9.4543   -2.1056    0.7006 N.pl3   1  <1>        -0.2893
     12 C7          0.8090    0.0362    0.0077 C.2     1  <1>         0.3217
     13 O1          0.1234   -0.0477    1.0178 O.2     1  <1>        -0.2493
     14 O2          0.3443   -0.2255   -1.2411 O.3     1  <1>        -0.4795
     15 H2          1.7069    2.1577    0.8528 H       1  <1>         0.1190
     16 H3          2.5267    1.1599    1.8503 H       1  <1>         0.1190
     17 H4          2.7263   -1.2799    1.2630 H       1  <1>         0.0286
     18 H5          2.9412   -1.6153   -0.4458 H       1  <1>         0.0286
     19 H6          5.0288   -1.4736    1.0107 H       1  <1>         0.0267
     20 H7          4.7979    0.2586    1.1191 H       1  <1>         0.0267
     21 H8          4.8747    0.3706   -1.4250 H       1  <1>         0.0296
     22 H9          5.2137   -1.3533   -1.4633 H       1  <1>         0.0296
     23 H10         7.1909    0.3298   -1.6067 H       1  <1>         0.0655
     24 H11         6.9710    0.6010    0.1244 H       1  <1>         0.0655
     25 H12         7.1671   -1.8629    0.3696 H       1  <1>         0.2579
     26 H13         9.3561   -0.1540   -1.7875 H       1  <1>         0.3062
     27 H14         8.9824   -3.0071    0.7459 H       1  <1>         0.2546
     28 H15        10.4573   -2.2822    0.6391 H       1  <1>         0.2546
     29 H16         0.1150    0.5879   -1.7401 H       1  <1>         0.2951
@<TRIPOS>BOND
     1     2     1    1
     2     2     3    1
     3     4     2    1
     4     5     4    1
     5     6     5    1
     6     7     6    1
     7     8     7    1
     8     9     8    1
     9    10     9    2
    10    11     9    1
    11    12     2    1
    12    13    12    2
    13    14    12    1
    14     1    15    1
    15     1    16    1
    16     4    17    1
    17     4    18    1
    18     5    19    1
    19     5    20    1
    20     6    21    1
    21     6    22    1
    22     7    23    1
    23     7    24    1
    24     8    25    1
    25    10    26    1
    26    11    27    1
    27    11    28    1
    28    14    29    1
