3DIQ_HRG_A_175
  1228              3D

 29 28  0  0  0  0  0  0  0  0999 V2000
    2.4882    1.5046    0.8922 N   0  0  0  0  0  0  0  0  0  0  0  0
    2.2816    0.3982   -0.0385 C   0  0  0  0  0  0  0  0  0  0  0  0
    2.5360    0.7398   -1.0502 H   0  0  0  0  0  0  0  0  0  0  0  0
    3.1015   -0.8488    0.3242 C   0  0  0  0  0  0  0  0  0  0  0  0
    4.6099   -0.6106    0.4801 C   0  0  0  0  0  0  0  0  0  0  0  0
    5.3339   -0.4469   -0.8579 C   0  0  0  0  0  0  0  0  0  0  0  0
    6.8211   -0.1268   -0.6819 C   0  0  0  0  0  0  0  0  0  0  0  0
    7.5820   -1.3458   -0.4060 N   0  0  0  0  0  0  0  0  0  0  0  0
    8.9861   -1.2775   -0.3017 C   0  0  0  0  0  0  0  0  0  0  0  0
    9.7316   -1.0104   -1.3460 N   0  0  0  0  0  0  0  0  0  0  0  0
    9.4543   -2.1056    0.7006 N   0  0  0  0  0  0  0  0  0  0  0  0
    0.8090    0.0362    0.0077 C   0  0  0  0  0  0  0  0  0  0  0  0
    0.1234   -0.0477    1.0178 O   0  0  0  0  0  0  0  0  0  0  0  0
    0.3443   -0.2255   -1.2411 O   0  0  0  0  0  0  0  0  0  0  0  0
    1.7069    2.1577    0.8528 H   0  0  0  0  0  0  0  0  0  0  0  0
    2.5267    1.1599    1.8503 H   0  0  0  0  0  0  0  0  0  0  0  0
    2.7263   -1.2799    1.2630 H   0  0  0  0  0  0  0  0  0  0  0  0
    2.9412   -1.6153   -0.4458 H   0  0  0  0  0  0  0  0  0  0  0  0
    5.0288   -1.4736    1.0107 H   0  0  0  0  0  0  0  0  0  0  0  0
    4.7979    0.2586    1.1191 H   0  0  0  0  0  0  0  0  0  0  0  0
    4.8747    0.3706   -1.4250 H   0  0  0  0  0  0  0  0  0  0  0  0
    5.2137   -1.3533   -1.4633 H   0  0  0  0  0  0  0  0  0  0  0  0
    7.1909    0.3298   -1.6067 H   0  0  0  0  0  0  0  0  0  0  0  0
    6.9710    0.6010    0.1244 H   0  0  0  0  0  0  0  0  0  0  0  0
    7.1671   -1.8629    0.3696 H   0  0  0  0  0  0  0  0  0  0  0  0
    9.3561   -0.1540   -1.7875 H   0  0  0  0  0  0  0  0  0  0  0  0
    8.9824   -3.0071    0.7459 H   0  0  0  0  0  0  0  0  0  0  0  0
   10.4573   -2.2822    0.6391 H   0  0  0  0  0  0  0  0  0  0  0  0
    0.1150    0.5879   -1.7401 H   0  0  0  0  0  0  0  0  0  0  0  0
  2  1  1  0  0  0  0
  2  3  1  0  0  0  0
  4  2  1  0  0  0  0
  5  4  1  0  0  0  0
  6  5  1  0  0  0  0
  7  6  1  0  0  0  0
  8  7  1  0  0  0  0
  9  8  1  0  0  0  0
 10  9  2  0  0  0  0
 11  9  1  0  0  0  0
 12  2  1  0  0  0  0
 13 12  2  0  0  0  0
 14 12  1  0  0  0  0
  1 15  1  0  0  0  0
  1 16  1  0  0  0  0
  4 17  1  0  0  0  0
  4 18  1  0  0  0  0
  5 19  1  0  0  0  0
  5 20  1  0  0  0  0
  6 21  1  0  0  0  0
  6 22  1  0  0  0  0
  7 23  1  0  0  0  0
  7 24  1  0  0  0  0
  8 25  1  0  0  0  0
 10 26  1  0  0  0  0
 11 27  1  0  0  0  0
 11 28  1  0  0  0  0
 14 29  1  0  0  0  0
M  END
>  <energy>
46.068616298464022

$$$$
