REMARK  3 active torsions:
REMARK  status: ('A' for Active; 'I' for Inactive)
REMARK    1  A    between atoms: C_1  and  C_11 
REMARK    2  A    between atoms: C_1  and  C_17 
REMARK    3  A    between atoms: C_20  and  N_23 
ROOT
ATOM      1  C   UNL d   1       1.083  -0.052   0.011  0.00  0.00    -0.005 C 
ATOM      2  C   UNL d   1       0.346  -1.195  -0.223  0.00  0.00    -0.024 C 
ATOM      3  C   UNL d   1       0.945  -2.502  -0.502  0.00  0.00     0.014 C 
ATOM      4  C   UNL d   1       0.287  -3.645  -0.239  0.00  0.00     0.030 C 
ATOM      5  C   UNL d   1      -1.123  -3.584   0.269  0.00  0.00     0.029 C 
ATOM      6  N   UNL d   1      -1.693  -4.557   0.925  0.00  0.00    -0.390 N 
ATOM      7  C   UNL d   1      -1.001  -5.833   1.312  0.00  0.00     0.149 C 
ATOM      8  C   UNL d   1      -3.108  -4.511   1.422  0.00  0.00     0.149 C 
ATOM      9  C   UNL d   1      -1.829  -2.311  -0.103  0.00  0.00     0.030 C 
ATOM     10  C   UNL d   1      -1.118  -1.193  -0.332  0.00  0.00     0.014 C 
ENDROOT
BRANCH   1  11
ATOM     11  C   UNL d   1       0.309   1.237   0.089  0.00  0.00    -0.024 A 
ATOM     12  C   UNL d   1      -0.309   1.650   1.279  0.00  0.00     0.012 A 
ATOM     13  C   UNL d   1      -1.103   2.805   1.303  0.00  0.00     0.001 A 
ATOM     14  C   UNL d   1      -1.276   3.566   0.147  0.00  0.00     0.000 A 
ATOM     15  C   UNL d   1      -0.660   3.172  -1.039  0.00  0.00     0.001 A 
ATOM     16  C   UNL d   1       0.121   2.012  -1.069  0.00  0.00     0.012 A 
ENDBRANCH   1  11
BRANCH   1  17
ATOM     17  C   UNL d   1       2.601  -0.058   0.090  0.00  0.00    -0.024 C 
ATOM     18  C   UNL d   1       3.348   1.038  -0.352  0.00  0.00     0.014 C 
ATOM     19  C   UNL d   1       4.749   0.967  -0.483  0.00  0.00     0.030 C 
ATOM     20  C   UNL d   1       5.484  -0.193  -0.196  0.00  0.00     0.029 C 
ATOM     21  C   UNL d   1       4.748  -1.220   0.400  0.00  0.00     0.030 C 
ATOM     22  C   UNL d   1       3.353  -1.133   0.585  0.00  0.00     0.014 C 
BRANCH  20  23
ATOM     23  N   UNL d   1       6.847  -0.268  -0.440  0.00  0.00    -0.390 N 
ATOM     24  C   UNL d   1       7.696  -1.316   0.121  0.00  0.00     0.149 C 
ATOM     25  C   UNL d   1       7.418   0.388  -1.621  0.00  0.00     0.149 C 
ENDBRANCH  20  23
ENDBRANCH   1  17
TORSDOF 3
