1Q8N_MGR_A_39
 OpenBabel03221817003D

 50 52  0  0  0  0  0  0  0  0999 V2000
    1.0829   -0.0518    0.0109 C   0  0  0  0  0  0  0  0  0  0  0  0
    0.3464   -1.1949   -0.2231 C   0  0  0  0  0  0  0  0  0  0  0  0
    0.9446   -2.5023   -0.5018 C   0  0  0  0  0  0  0  0  0  0  0  0
    0.2869   -3.6446   -0.2392 C   0  0  0  0  0  0  0  0  0  0  0  0
   -1.1230   -3.5844    0.2689 C   0  0  0  0  0  0  0  0  0  0  0  0
   -1.6929   -4.5570    0.9248 N   0  3  0  0  0  0  0  0  0  0  0  0
   -1.0013   -5.8330    1.3118 C   0  0  0  0  0  0  0  0  0  0  0  0
   -3.1082   -4.5111    1.4223 C   0  0  0  0  0  0  0  0  0  0  0  0
   -1.8291   -2.3112   -0.1034 C   0  0  0  0  0  0  0  0  0  0  0  0
   -1.1183   -1.1930   -0.3317 C   0  0  0  0  0  0  0  0  0  0  0  0
    0.3095    1.2372    0.0893 C   0  0  0  0  0  0  0  0  0  0  0  0
   -0.3094    1.6501    1.2787 C   0  0  0  0  0  0  0  0  0  0  0  0
   -1.1030    2.8050    1.3030 C   0  0  0  0  0  0  0  0  0  0  0  0
   -1.2760    3.5659    0.1468 C   0  0  0  0  0  0  0  0  0  0  0  0
   -0.6599    3.1716   -1.0386 C   0  0  0  0  0  0  0  0  0  0  0  0
    0.1213    2.0118   -1.0690 C   0  0  0  0  0  0  0  0  0  0  0  0
    2.6012   -0.0578    0.0901 C   0  0  0  0  0  0  0  0  0  0  0  0
    3.3477    1.0377   -0.3522 C   0  0  0  0  0  0  0  0  0  0  0  0
    4.7493    0.9667   -0.4835 C   0  0  0  0  0  0  0  0  0  0  0  0
    5.4835   -0.1929   -0.1958 C   0  0  0  0  0  0  0  0  0  0  0  0
    4.7479   -1.2203    0.3997 C   0  0  0  0  0  0  0  0  0  0  0  0
    3.3525   -1.1333    0.5848 C   0  0  0  0  0  0  0  0  0  0  0  0
    6.8469   -0.2677   -0.4401 N   0  0  0  0  0  0  0  0  0  0  0  0
    7.6956   -1.3163    0.1214 C   0  0  0  0  0  0  0  0  0  0  0  0
    7.4182    0.3876   -1.6215 C   0  0  0  0  0  0  0  0  0  0  0  0
    1.9289   -2.5495   -0.9578 H   0  0  0  0  0  0  0  0  0  0  0  0
    0.7691   -4.5936   -0.4414 H   0  0  0  0  0  0  0  0  0  0  0  0
    0.0711   -5.7868    1.1272 H   0  0  0  0  0  0  0  0  0  0  0  0
   -1.4546   -6.6456    0.7375 H   0  0  0  0  0  0  0  0  0  0  0  0
   -1.1580   -5.9956    2.3827 H   0  0  0  0  0  0  0  0  0  0  0  0
   -3.5310   -3.5098    1.3535 H   0  0  0  0  0  0  0  0  0  0  0  0
   -3.1124   -4.8124    2.4735 H   0  0  0  0  0  0  0  0  0  0  0  0
   -3.6894   -5.2207    0.8275 H   0  0  0  0  0  0  0  0  0  0  0  0
   -2.9064   -2.2888   -0.2187 H   0  0  0  0  0  0  0  0  0  0  0  0
   -1.6378   -0.2877   -0.6355 H   0  0  0  0  0  0  0  0  0  0  0  0
   -0.1923    1.0717    2.1911 H   0  0  0  0  0  0  0  0  0  0  0  0
   -1.5884    3.1163    2.2255 H   0  0  0  0  0  0  0  0  0  0  0  0
   -1.8866    4.4668    0.1712 H   0  0  0  0  0  0  0  0  0  0  0  0
   -0.7894    3.7648   -1.9414 H   0  0  0  0  0  0  0  0  0  0  0  0
    0.5808    1.7130   -2.0089 H   0  0  0  0  0  0  0  0  0  0  0  0
    2.8707    1.9753   -0.6238 H   0  0  0  0  0  0  0  0  0  0  0  0
    5.2644    1.8646   -0.8173 H   0  0  0  0  0  0  0  0  0  0  0  0
    5.2309   -2.1434    0.7059 H   0  0  0  0  0  0  0  0  0  0  0  0
    2.8714   -1.9657    1.0901 H   0  0  0  0  0  0  0  0  0  0  0  0
    7.2981   -1.7609    1.0375 H   0  0  0  0  0  0  0  0  0  0  0  0
    8.6675   -0.8851    0.3886 H   0  0  0  0  0  0  0  0  0  0  0  0
    7.8732   -2.1127   -0.6109 H   0  0  0  0  0  0  0  0  0  0  0  0
    6.7442    1.0813   -2.1309 H   0  0  0  0  0  0  0  0  0  0  0  0
    7.7181   -0.3618   -2.3647 H   0  0  0  0  0  0  0  0  0  0  0  0
    8.3130    0.9480   -1.3301 H   0  0  0  0  0  0  0  0  0  0  0  0
  1  2  2  0  0  0  0
  1 11  1  0  0  0  0
  1 17  1  0  0  0  0
  2  3  1  0  0  0  0
  2 10  1  0  0  0  0
  3  4  2  0  0  0  0
  3 26  1  0  0  0  0
  4  5  1  0  0  0  0
  4 27  1  0  0  0  0
  5  6  2  0  0  0  0
  5  9  1  0  0  0  0
  6  7  1  0  0  0  0
  6  8  1  0  0  0  0
  7 28  1  0  0  0  0
  7 29  1  0  0  0  0
  7 30  1  0  0  0  0
  8 31  1  0  0  0  0
  8 32  1  0  0  0  0
  8 33  1  0  0  0  0
  9 10  2  0  0  0  0
  9 34  1  0  0  0  0
 10 35  1  0  0  0  0
 11 12  2  0  0  0  0
 11 16  1  0  0  0  0
 12 13  1  0  0  0  0
 12 36  1  0  0  0  0
 13 14  2  0  0  0  0
 13 37  1  0  0  0  0
 14 15  1  0  0  0  0
 14 38  1  0  0  0  0
 15 16  2  0  0  0  0
 15 39  1  0  0  0  0
 16 40  1  0  0  0  0
 17 18  2  0  0  0  0
 17 22  1  0  0  0  0
 18 19  1  0  0  0  0
 18 41  1  0  0  0  0
 19 20  2  0  0  0  0
 19 42  1  0  0  0  0
 20 21  1  0  0  0  0
 20 23  1  0  0  0  0
 21 22  2  0  0  0  0
 21 43  1  0  0  0  0
 22 44  1  0  0  0  0
 23 24  1  0  0  0  0
 23 25  1  0  0  0  0
 24 45  1  0  0  0  0
 24 46  1  0  0  0  0
 24 47  1  0  0  0  0
 25 48  1  0  0  0  0
 25 49  1  0  0  0  0
 25 50  1  0  0  0  0
M  CHG  1   6   1
M  END
$$$$
