@<TRIPOS>MOLECULE
1Q8N_MGR_A_39
 50 52 0 0 0
SMALL
GASTEIGER

@<TRIPOS>ATOM
      1 C           1.0829   -0.0518    0.0109 C.2     1  UNL1       -0.0036
      2 C           0.3464   -1.1949   -0.2231 C.2     1  UNL1       -0.0163
      3 C           0.9446   -2.5023   -0.5018 C.2     1  UNL1       -0.0478
      4 C           0.2869   -3.6446   -0.2392 C.2     1  UNL1        0.0098
      5 C          -1.1230   -3.5844    0.2689 C.2     1  UNL1        0.2021
      6 N          -1.6929   -4.5570    0.9248 N.2     1  UNL1       -0.2338
      7 C          -1.0013   -5.8330    1.3118 C.3     1  UNL1        0.1352
      8 C          -3.1082   -4.5111    1.4223 C.3     1  UNL1        0.1352
      9 C          -1.8291   -2.3112   -0.1034 C.2     1  UNL1        0.0098
     10 C          -1.1183   -1.1930   -0.3317 C.2     1  UNL1       -0.0478
     11 C           0.3095    1.2372    0.0893 C.ar    1  UNL1       -0.0168
     12 C          -0.3094    1.6501    1.2787 C.ar    1  UNL1       -0.0540
     13 C          -1.1030    2.8050    1.3030 C.ar    1  UNL1       -0.0612
     14 C          -1.2760    3.5659    0.1468 C.ar    1  UNL1       -0.0617
     15 C          -0.6599    3.1716   -1.0386 C.ar    1  UNL1       -0.0612
     16 C           0.1213    2.0118   -1.0690 C.ar    1  UNL1       -0.0540
     17 C           2.6012   -0.0578    0.0901 C.ar    1  UNL1       -0.0166
     18 C           3.3477    1.0377   -0.3522 C.ar    1  UNL1       -0.0522
     19 C           4.7493    0.9667   -0.4835 C.ar    1  UNL1       -0.0401
     20 C           5.4835   -0.1929   -0.1958 C.ar    1  UNL1        0.0292
     21 C           4.7479   -1.2203    0.3997 C.ar    1  UNL1       -0.0401
     22 C           3.3525   -1.1333    0.5848 C.ar    1  UNL1       -0.0522
     23 N           6.8469   -0.2677   -0.4401 N.pl3   1  UNL1       -0.3360
     24 C           7.6956   -1.3163    0.1214 C.3     1  UNL1        0.0004
     25 C           7.4182    0.3876   -1.6215 C.3     1  UNL1        0.0004
     26 H           1.9289   -2.5495   -0.9578 H       1  UNL1        0.0626
     27 H           0.7691   -4.5936   -0.4414 H       1  UNL1        0.0683
     28 H           0.0711   -5.7868    1.1272 H       1  UNL1        0.0988
     29 H          -1.4546   -6.6456    0.7375 H       1  UNL1        0.0988
     30 H          -1.1580   -5.9956    2.3827 H       1  UNL1        0.0988
     31 H          -3.5310   -3.5098    1.3535 H       1  UNL1        0.0988
     32 H          -3.1124   -4.8124    2.4735 H       1  UNL1        0.0988
     33 H          -3.6894   -5.2207    0.8275 H       1  UNL1        0.0988
     34 H          -2.9064   -2.2888   -0.2187 H       1  UNL1        0.0683
     35 H          -1.6378   -0.2877   -0.6355 H       1  UNL1        0.0626
     36 H          -0.1923    1.0717    2.1911 H       1  UNL1        0.0624
     37 H          -1.5884    3.1163    2.2255 H       1  UNL1        0.0618
     38 H          -1.8866    4.4668    0.1712 H       1  UNL1        0.0618
     39 H          -0.7894    3.7648   -1.9414 H       1  UNL1        0.0618
     40 H           0.5808    1.7130   -2.0089 H       1  UNL1        0.0624
     41 H           2.8707    1.9753   -0.6238 H       1  UNL1        0.0624
     42 H           5.2644    1.8646   -0.8173 H       1  UNL1        0.0636
     43 H           5.2309   -2.1434    0.7059 H       1  UNL1        0.0636
     44 H           2.8714   -1.9657    1.0901 H       1  UNL1        0.0624
     45 H           7.2981   -1.7609    1.0375 H       1  UNL1        0.0428
     46 H           8.6675   -0.8851    0.3886 H       1  UNL1        0.0428
     47 H           7.8732   -2.1127   -0.6109 H       1  UNL1        0.0428
     48 H           6.7442    1.0813   -2.1309 H       1  UNL1        0.0428
     49 H           7.7181   -0.3618   -2.3647 H       1  UNL1        0.0428
     50 H           8.3130    0.9480   -1.3301 H       1  UNL1        0.0428
@<TRIPOS>BOND
     1     1     2    2
     2     1    11    1
     3     1    17    1
     4     2     3    1
     5     2    10    1
     6     3     4    2
     7     3    26    1
     8     4     5    1
     9     4    27    1
    10     5     6    2
    11     5     9    1
    12     6     7    1
    13     6     8    1
    14     7    28    1
    15     7    29    1
    16     7    30    1
    17     8    31    1
    18     8    32    1
    19     8    33    1
    20     9    10    2
    21     9    34    1
    22    10    35    1
    23    11    12   ar
    24    11    16   ar
    25    12    13   ar
    26    12    36    1
    27    13    14   ar
    28    13    37    1
    29    14    15   ar
    30    14    38    1
    31    15    16   ar
    32    15    39    1
    33    16    40    1
    34    17    18   ar
    35    17    22   ar
    36    18    19   ar
    37    18    41    1
    38    19    20   ar
    39    19    42    1
    40    20    21   ar
    41    20    23    1
    42    21    22   ar
    43    21    43    1
    44    22    44    1
    45    23    24    1
    46    23    25    1
    47    24    45    1
    48    24    46    1
    49    24    47    1
    50    25    48    1
    51    25    49    1
    52    25    50    1
