1RAW_AMP_A_37
 OpenBabel10091713573D
Coordinates from PDB:1RAW:A:37 Model:1 without hydrogens
 23 25  0  0  0  0  0  0  0  0999 V2000
   -3.7960   -7.9160   -4.0390 P   0  0  0  0  0  0  0  0  0  0  0  0
   -3.0630   -7.1270   -5.0550 O   0  0  0  0  0  0  0  0  0  0  0  0
   -3.2190   -9.1780   -3.5290 O   0  0  0  0  0  0  0  0  0  0  0  0
   -5.2690   -8.2260   -4.6050 O   0  0  0  0  0  0  0  0  0  0  0  0
   -4.1030   -6.9600   -2.7820 O   0  0  0  0  0  0  0  0  0  0  0  0
   -4.6250   -5.6410   -2.9770 C   0  0  0  0  0  0  0  0  0  0  0  0
   -3.8780   -4.6080   -2.1920 C   0  0  1  0  0  0  0  0  0  0  0  0
   -2.4750   -4.7990   -2.2800 O   0  0  0  0  0  0  0  0  0  0  0  0
   -4.1790   -3.2520   -2.7600 C   0  0  1  0  0  0  0  0  0  0  0  0
   -5.2820   -2.6370   -2.0940 O   0  0  0  0  0  0  0  0  0  0  0  0
   -2.8990   -2.5060   -2.6320 C   0  0  1  0  0  0  0  0  0  0  0  0
   -2.9540   -1.4180   -1.7260 O   0  0  0  0  0  0  0  0  0  0  0  0
   -1.8830   -3.5120   -2.1860 C   0  0  2  0  0  0  0  0  0  0  0  0
   -0.7760   -3.3760   -3.0710 N   0  0  0  0  0  0  0  0  0  0  0  0
   -0.6790   -3.7730   -4.3390 C   0  0  0  0  0  0  0  0  0  0  0  0
    0.2820   -3.3090   -5.0650 N   0  0  0  0  0  0  0  0  0  0  0  0
    0.9110   -2.4650   -4.1240 C   0  0  0  0  0  0  0  0  0  0  0  0
    2.0110   -1.5970   -4.1840 C   0  0  0  0  0  0  0  0  0  0  0  0
    2.6520   -1.3070   -5.3070 N   0  0  0  0  0  0  0  0  0  0  0  0
    2.3240   -0.9240   -3.0630 N   0  0  0  0  0  0  0  0  0  0  0  0
    1.5930   -1.0790   -1.9600 C   0  0  0  0  0  0  0  0  0  0  0  0
    0.5510   -1.8600   -1.7980 N   0  0  0  0  0  0  0  0  0  0  0  0
    0.2630   -2.5230   -2.9170 C   0  0  0  0  0  0  0  0  0  0  0  0
  1  2  2  0  0  0  0
  1  3  1  0  0  0  0
  1  4  1  0  0  0  0
  1  5  1  0  0  0  0
  5  6  1  0  0  0  0
  7  6  1  6  0  0  0
  7  8  1  0  0  0  0
  7  9  1  0  0  0  0
  8 13  1  0  0  0  0
  9 10  1  1  0  0  0
  9 11  1  0  0  0  0
 11 12  1  1  0  0  0
 11 13  1  0  0  0  0
 13 14  1  6  0  0  0
 14 15  1  0  0  0  0
 14 23  1  0  0  0  0
 15 16  2  0  0  0  0
 16 17  1  0  0  0  0
 17 18  1  0  0  0  0
 17 23  2  0  0  0  0
 18 19  1  0  0  0  0
 18 20  2  0  0  0  0
 20 21  1  0  0  0  0
 21 22  2  0  0  0  0
 22 23  1  0  0  0  0
A    1
P
A    2
O1P
A    3
O2P
A    4
O3P
A    5
O5'
A    6
C5'
A    7
C4'
A    8
O4'
A    9
C3'
A   10
O3'
A   11
C2'
A   12
O2'
A   13
C1'
A   14
N9
A   15
C8
A   16
N7
A   17
C5
A   18
C6
A   19
N6
A   20
N1
A   21
C2
A   22
N3
A   23
C4
M  END
>  <InstanceId>
1RAW_AMP_A_37

>  <ChemCompId>
AMP

>  <PdbId>
1RAW

>  <ChainId>
A

>  <ResidueNumber>
37

>  <InsertionCode>


>  <Model>
1

>  <AltIds>


>  <MissingHeavyAtoms>
0

>  <ObservedFormula>
C10 N5 O7 P

>  <Name>
ADENOSINE MONOPHOSPHATE

>  <SystematicName>
[(2R,3S,4R,5R)-5-(6-aminopurin-9-yl)-3,4-bis(oxidanyl)oxolan-2-yl]methyl dihydrogen phosphate

>  <Synonyms>


>  <Type>
NON-POLYMER

>  <Formula>
C10 H14 N5 O7 P

>  <MolecularWeight>
347.221

>  <ModifiedDate>
2011-12-08

>  <Parent>


>  <OneLetterCode>


>  <SubcomponentList>


>  <AmbiguousFlag>
N

>  <InChI>
InChI=1S/C10H14N5O7P/c11-8-5-9(13-2-12-8)15(3-14-5)10-7(17)6(16)4(22-10)1-21-23(18,19)20/h2-4,6-7,10,16-17H,1H2,(H2,11,12,13)(H2,18,19,20)/t4-,6-,7-,10-/m1/s1

>  <InChIKey>
UDMBCSSLTHHNCD-KQYNXXCUSA-N

>  <SMILES>
c1nc(c2c(n1)n(cn2)[C@H]3[C@@H]([C@@H]([C@H](O3)COP(=O)(O)O)O)O)N

$$$$
