@<TRIPOS>MOLECULE
1RAW_AMP_A_37
 23 25 0 0 0
SMALL
GASTEIGER
****
Coordinates from PDB:1RAW:A:37 Model:1 without hydrogens
@<TRIPOS>ATOM
      1 P          -3.7960   -7.9160   -4.0390 P.3     1  UNL1        0.5327
      2 O          -3.0630   -7.1270   -5.0550 O.2     1  UNL1       -0.2224
      3 O          -3.2190   -9.1780   -3.5290 O.3     1  UNL1       -0.1145
      4 O          -5.2690   -8.2260   -4.6050 O.3     1  UNL1       -0.1145
      5 O          -4.1030   -6.9600   -2.7820 O.3     1  UNL1       -0.2675
      6 C          -4.6250   -5.6410   -2.9770 C.3     1  UNL1        0.1859
      7 C          -3.8780   -4.6080   -2.1920 C.3     1  UNL1        0.1803
      8 O          -2.4750   -4.7990   -2.2800 O.3     1  UNL1       -0.3306
      9 C          -4.1790   -3.2520   -2.7600 C.3     1  UNL1        0.2161
     10 O          -5.2820   -2.6370   -2.0940 O.3     1  UNL1       -0.2175
     11 C          -2.8990   -2.5060   -2.6320 C.3     1  UNL1        0.2337
     12 O          -2.9540   -1.4180   -1.7260 O.3     1  UNL1       -0.2155
     13 C          -1.8830   -3.5120   -2.1860 C.3     1  UNL1        0.2409
     14 N          -0.7760   -3.3760   -3.0710 N.ar    1  UNL1       -0.2693
     15 C          -0.6790   -3.7730   -4.3390 C.ar    1  UNL1        0.1816
     16 N           0.2820   -3.3090   -5.0650 N.ar    1  UNL1       -0.2193
     17 C           0.9110   -2.4650   -4.1240 C.ar    1  UNL1        0.1518
     18 C           2.0110   -1.5970   -4.1840 C.ar    1  UNL1        0.1919
     19 N           2.6520   -1.3070   -5.3070 N.pl3   1  UNL1       -0.1054
     20 N           2.3240   -0.9240   -3.0630 N.ar    1  UNL1       -0.2040
     21 C           1.5930   -1.0790   -1.9600 C.ar    1  UNL1        0.2016
     22 N           0.5510   -1.8600   -1.7980 N.ar    1  UNL1       -0.2048
     23 C           0.2630   -2.5230   -2.9170 C.ar    1  UNL1        0.1692
@<TRIPOS>BOND
     1     1     2    2
     2     1     3    1
     3     1     4    1
     4     1     5    1
     5     5     6    1
     6     7     6    1
     7     7     8    1
     8     7     9    1
     9     8    13    1
    10     9    10    1
    11     9    11    1
    12    11    12    1
    13    11    13    1
    14    13    14    1
    15    14    15   ar
    16    14    23   ar
    17    15    16   ar
    18    16    17   ar
    19    17    18   ar
    20    17    23   ar
    21    18    19    1
    22    18    20   ar
    23    20    21   ar
    24    21    22   ar
    25    22    23   ar
