REMARK  4 active torsions:
REMARK  status: ('A' for Active; 'I' for Inactive)
REMARK    1  A    between atoms: P_1  and  O_5 
REMARK    2  A    between atoms: O_5  and  C_6 
REMARK    3  A    between atoms: C_7  and  C_6 
REMARK    4  A    between atoms: C_13  and  N_14 
ROOT
ATOM      1  C   UNL d   1      -3.878  -4.608  -2.192  0.00  0.00     0.181 C 
ATOM      2  O   UNL d   1      -2.475  -4.799  -2.280  0.00  0.00    -0.331 OA
ATOM      3  C   UNL d   1      -4.179  -3.252  -2.760  0.00  0.00     0.216 C 
ATOM      4  O   UNL d   1      -5.282  -2.637  -2.094  0.00  0.00    -0.218 OA
ATOM      5  C   UNL d   1      -2.899  -2.506  -2.632  0.00  0.00     0.234 C 
ATOM      6  O   UNL d   1      -2.954  -1.418  -1.726  0.00  0.00    -0.216 OA
ATOM      7  C   UNL d   1      -1.883  -3.512  -2.186  0.00  0.00     0.241 C 
ENDROOT
BRANCH   7   8
ATOM      8  N   UNL d   1      -0.776  -3.376  -3.071  0.00  0.00    -0.270 N 
ATOM      9  C   UNL d   1      -0.679  -3.773  -4.339  0.00  0.00     0.182 A 
ATOM     10  N   UNL d   1       0.282  -3.309  -5.065  0.00  0.00    -0.219 NA
ATOM     11  C   UNL d   1       0.911  -2.465  -4.124  0.00  0.00     0.155 A 
ATOM     12  C   UNL d   1       2.011  -1.597  -4.184  0.00  0.00     0.206 A 
ATOM     13  C   UNL d   1       0.263  -2.523  -2.917  0.00  0.00     0.170 A 
ATOM     14  N   UNL d   1       2.652  -1.307  -5.307  0.00  0.00    -0.125 N 
ATOM     15  N   UNL d   1       2.324  -0.924  -3.063  0.00  0.00    -0.202 NA
ATOM     16  C   UNL d   1       1.593  -1.079  -1.960  0.00  0.00     0.202 A 
ATOM     17  N   UNL d   1       0.551  -1.860  -1.798  0.00  0.00    -0.205 NA
ENDBRANCH   7   8
BRANCH   1  18
ATOM     18  C   UNL d   1      -4.625  -5.641  -2.977  0.00  0.00     0.188 C 
BRANCH  18  19
ATOM     19  O   UNL d   1      -4.103  -6.960  -2.782  0.00  0.00    -0.261 OA
BRANCH  19  20
ATOM     20  P   UNL d   1      -3.796  -7.916  -4.039  0.00  0.00     0.423 P 
ATOM     21  O   UNL d   1      -3.063  -7.127  -5.055  0.00  0.00    -0.617 OA
ATOM     22  O   UNL d   1      -3.219  -9.178  -3.529  0.00  0.00    -0.617 OA
ATOM     23  O   UNL d   1      -5.269  -8.226  -4.605  0.00  0.00    -0.617 OA
ENDBRANCH  19  20
ENDBRANCH  18  19
ENDBRANCH   1  18
TORSDOF 4
