@<TRIPOS>MOLECULE
1KOD_CIR_B_1
 25 24 0 0 0
SMALL
GASTEIGER

@<TRIPOS>ATOM
      1 C          -2.7657   -0.2283    0.6229 C.2     1  UNL1        0.3217
      2 O          -3.6391    0.5729    0.9367 O.2     1  UNL1       -0.2493
      3 OXT        -2.3383   -1.2036    1.4577 O.3     1  UNL1       -0.4795
      4 CA         -2.1179   -0.2663   -0.7446 C.3     1  UNL1        0.1033
      5 HA         -1.9847    0.7781   -1.0543 H       1  UNL1        0.0574
      6 N          -0.7784   -0.8516   -0.6728 N.3     1  UNL1       -0.3184
      7 C          -3.0488   -0.9461   -1.7611 C.3     1  UNL1       -0.0260
      8 C          -3.2335   -2.4540   -1.5673 C.3     1  UNL1       -0.0354
      9 C          -4.6469   -2.8249   -1.1349 C.3     1  UNL1        0.0131
     10 N          -4.7127   -4.2446   -0.8411 N.am    1  UNL1       -0.2996
     11 C          -5.9245   -4.8910   -0.6568 C.2     1  UNL1        0.2971
     12 O          -6.8608   -4.4501    0.0054 O.2     1  UNL1       -0.2531
     13 N          -5.9404   -6.1297   -1.2728 N.am    1  UNL1       -0.3134
     14 HXT        -2.7055   -1.0779    2.3581 H       1  UNL1        0.2951
     15 H1         -0.3079   -0.7355   -1.5695 H       1  UNL1        0.1190
     16 H2         -0.8312   -1.8581   -0.5224 H       1  UNL1        0.1190
     17 H          -2.6504   -0.7680   -2.7684 H       1  UNL1        0.0286
     18 H          -4.0259   -0.4429   -1.7388 H       1  UNL1        0.0286
     19 H          -3.0043   -2.9643   -2.5106 H       1  UNL1        0.0281
     20 H          -2.5296   -2.8483   -0.8286 H       1  UNL1        0.0281
     21 H          -5.3705   -2.6012   -1.9259 H       1  UNL1        0.0462
     22 H          -4.9359   -2.2818   -0.2286 H       1  UNL1        0.0462
     23 H          -3.9218   -4.8199   -1.1156 H       1  UNL1        0.1502
     24 H          -5.1788   -6.7647   -1.0478 H       1  UNL1        0.1465
     25 H          -6.1914   -6.1524   -2.2571 H       1  UNL1        0.1465
@<TRIPOS>BOND
     1     2     1    2
     2     3     1    1
     3     4     1    1
     4     4     5    1
     5     6     4    1
     6     7     4    1
     7     8     7    1
     8     9     8    1
     9    10     9    1
    10    11    10   am
    11    12    11    2
    12    13    11   am
    13     3    14    1
    14     6    15    1
    15     6    16    1
    16     7    17    1
    17     7    18    1
    18     8    19    1
    19     8    20    1
    20     9    21    1
    21     9    22    1
    22    10    23    1
    23    13    24    1
    24    13    25    1
