REMARK  7 active torsions:
REMARK  status: ('A' for Active; 'I' for Inactive)
REMARK    1  A    between atoms: OXT_3  and  C_1 
REMARK    2  A    between atoms: CA_4  and  C_1 
REMARK    3  A    between atoms: N_5  and  CA_4 
REMARK    4  A    between atoms: C_6  and  CA_4 
REMARK    5  A    between atoms: C_7  and  C_6 
REMARK    6  A    between atoms: C_8  and  C_7 
REMARK    7  A    between atoms: N_9  and  C_8 
REMARK       I    between atoms: C_10  and  N_9 
REMARK       I    between atoms: N_12  and  C_10 
ROOT
ATOM      1  C   UNL d   1      -3.049  -0.946  -1.761  0.00  0.00     0.048 C 
ENDROOT
BRANCH   1   2
ATOM      2  CA  UNL d   1      -2.118  -0.266  -0.745  0.00  0.00     0.314 C 
BRANCH   2   3
ATOM      3  C   UNL d   1      -2.766  -0.228   0.623  0.00  0.00     0.173 C 
ATOM      4  O   UNL d   1      -3.639   0.573   0.937  0.00  0.00    -0.648 OA
BRANCH   3   5
ATOM      5  OXT UNL d   1      -2.338  -1.204   1.458  0.00  0.00    -0.775 OA
ATOM      6  HXT UNL d   1      -2.705  -1.078   2.358  0.00  0.00     0.167 HD
ENDBRANCH   3   5
ENDBRANCH   2   3
BRANCH   2   7
ATOM      7  N   UNL d   1      -0.778  -0.852  -0.673  0.00  0.00     0.093 N 
ATOM      8  H1  UNL d   1      -0.308  -0.736  -1.569  0.00  0.00     0.314 HD
ATOM      9  H2  UNL d   1      -0.831  -1.858  -0.522  0.00  0.00     0.314 HD
ENDBRANCH   2   7
ENDBRANCH   1   2
BRANCH   1  10
ATOM     10  C   UNL d   1      -3.233  -2.454  -1.567  0.00  0.00     0.022 C 
BRANCH  10  11
ATOM     11  C   UNL d   1      -4.647  -2.825  -1.135  0.00  0.00     0.124 C 
BRANCH  11  12
ATOM     12  N   UNL d   1      -4.713  -4.245  -0.841  0.00  0.00    -0.343 N 
ATOM     13  C   UNL d   1      -5.925  -4.891  -0.657  0.00  0.00     0.313 C 
ATOM     14  O   UNL d   1      -6.861  -4.450   0.005  0.00  0.00    -0.248 OA
ATOM     15  N   UNL d   1      -5.940  -6.130  -1.273  0.00  0.00    -0.352 N 
ATOM     16  H   UNL d   1      -5.179  -6.765  -1.048  0.00  0.00     0.160 HD
ATOM     17  H   UNL d   1      -6.191  -6.152  -2.257  0.00  0.00     0.160 HD
ATOM     18  H   UNL d   1      -3.922  -4.820  -1.116  0.00  0.00     0.164 HD
ENDBRANCH  11  12
ENDBRANCH  10  11
ENDBRANCH   1  10
TORSDOF 7
