REMARK  6 active torsions:
REMARK  status: ('A' for Active; 'I' for Inactive)
REMARK    1  A    between atoms: P_1  and  O_3 
REMARK    2  A    between atoms: P_1  and  O_4 
REMARK    3  A    between atoms: O_4  and  C_5 
REMARK    4  A    between atoms: C_5  and  C_6 
REMARK    5  A    between atoms: C_6  and  C_7 
REMARK    6  A    between atoms: C_7  and  O_8 
ROOT
ATOM      1  O   UNL d   1      30.951  32.393  51.862  0.00  0.00    -0.321 OA
ENDROOT
BRANCH   1   2
ATOM      2  P   UNL d   1      31.260  31.732  50.449  0.00  0.00     0.228 P 
ATOM      3  O   UNL d   1      32.741  31.710  50.346  0.00  0.00    -0.655 OA
ATOM      4  H   UNL d   1      31.413  30.364  50.346  0.00  0.00     0.152 HD
BRANCH   2   5
ATOM      5  O   UNL d   1      30.441  32.369  49.374  0.00  0.00    -0.331 OA
ATOM      6  H   UNL d   1      30.390  33.325  49.530  0.00  0.00     0.220 HD
ENDBRANCH   2   5
ENDBRANCH   1   2
BRANCH   1   7
ATOM      7  C   UNL d   1      29.614  32.508  52.335  0.00  0.00     0.180 C 
BRANCH   7   8
ATOM      8  C   UNL d   1      28.882  33.571  51.552  0.00  0.00     0.053 C 
BRANCH   8   9
ATOM      9  C   UNL d   1      27.406  33.775  51.873  0.00  0.00     0.166 C 
BRANCH   9  10
ATOM     10  O   UNL d   1      27.241  34.768  52.876  0.00  0.00    -0.401 OA
ATOM     11  H   UNL d   1      27.693  34.487  53.687  0.00  0.00     0.209 HD
ENDBRANCH   9  10
ENDBRANCH   8   9
ENDBRANCH   7   8
ENDBRANCH   1   7
TORSDOF 6
