ligand.pdb
 OpenBabel03221815553D

 17 16  0  0  0  0  0  0  0  0999 V2000
   31.2600   31.7320   50.4490 P   0  0  2  0  0  0  0  0  0  0  0  0
   32.7410   31.7100   50.3460 O   0  0  0  0  0  0  0  0  0  0  0  0
   30.4410   32.3690   49.3740 O   0  0  0  0  0  0  0  0  0  0  0  0
   30.9510   32.3930   51.8620 O   0  0  0  0  0  0  0  0  0  0  0  0
   29.6140   32.5080   52.3350 C   0  0  0  0  0  0  0  0  0  0  0  0
   28.8820   33.5710   51.5520 C   0  0  0  0  0  0  0  0  0  0  0  0
   27.4060   33.7750   51.8730 C   0  0  0  0  0  0  0  0  0  0  0  0
   27.2410   34.7680   52.8760 O   0  0  0  0  0  0  0  0  0  0  0  0
   31.4130   30.3640   50.3460 H   0  0  0  0  0  0  0  0  0  0  0  0
   30.3900   33.3250   49.5300 H   0  0  0  0  0  0  0  0  0  0  0  0
   29.6260   32.7750   53.3710 H   0  0  0  0  0  0  0  0  0  0  0  0
   29.1140   31.5700   52.2090 H   0  0  0  0  0  0  0  0  0  0  0  0
   28.9540   33.3160   50.5160 H   0  0  0  0  0  0  0  0  0  0  0  0
   29.3550   34.4910   51.8240 H   0  0  0  0  0  0  0  0  0  0  0  0
   26.9920   32.8520   52.2210 H   0  0  0  0  0  0  0  0  0  0  0  0
   26.9030   34.0970   50.9850 H   0  0  0  0  0  0  0  0  0  0  0  0
   27.6930   34.4870   53.6870 H   0  0  0  0  0  0  0  0  0  0  0  0
  1  2  2  0  0  0  0
  1  3  1  0  0  0  0
  1  4  1  0  0  0  0
  1  9  1  1  0  0  0
  3 10  1  0  0  0  0
  4  5  1  0  0  0  0
  5  6  1  0  0  0  0
  5 11  1  0  0  0  0
  5 12  1  0  0  0  0
  6  7  1  0  0  0  0
  6 13  1  0  0  0  0
  6 14  1  0  0  0  0
  7  8  1  0  0  0  0
  7 15  1  0  0  0  0
  7 16  1  0  0  0  0
  8 17  1  0  0  0  0
M  END
>  <COMPND>
2NPZ_PDI_B_14

>  <AUTHOR>
GENERATED BY OPEN BABEL 2.4.1

>  <MASTER>
0    0    0    0    0    0    0    0   17    0   17    0

$$$$
