@<TRIPOS>MOLECULE
ligand.pdb
 17 16 0 0 0
SMALL
GASTEIGER

@<TRIPOS>ATOM
      1 P          31.2600   31.7320   50.4490 P.3     1  UNL1        0.3187
      2 O          32.7410   31.7100   50.3460 O.2     1  UNL1       -0.2620
      3 O          30.4410   32.3690   49.3740 O.3     1  UNL1       -0.3259
      4 O          30.9510   32.3930   51.8620 O.3     1  UNL1       -0.3099
      5 C          29.6140   32.5080   52.3350 C.3     1  UNL1        0.0588
      6 C          28.8820   33.5710   51.5520 C.3     1  UNL1       -0.0057
      7 C          27.4060   33.7750   51.8730 C.3     1  UNL1        0.0463
      8 O          27.2410   34.7680   52.8760 O.3     1  UNL1       -0.3949
      9 H          31.4130   30.3640   50.3460 H       1  UNL1        0.1593
     10 H          30.3900   33.3250   49.5300 H       1  UNL1        0.2195
     11 H          29.6260   32.7750   53.3710 H       1  UNL1        0.0565
     12 H          29.1140   31.5700   52.2090 H       1  UNL1        0.0565
     13 H          28.9540   33.3160   50.5160 H       1  UNL1        0.0310
     14 H          29.3550   34.4910   51.8240 H       1  UNL1        0.0310
     15 H          26.9920   32.8520   52.2210 H       1  UNL1        0.0558
     16 H          26.9030   34.0970   50.9850 H       1  UNL1        0.0558
     17 H          27.6930   34.4870   53.6870 H       1  UNL1        0.2094
@<TRIPOS>BOND
     1     1     2    2
     2     1     3    1
     3     1     4    1
     4     1     9    1
     5     3    10    1
     6     4     5    1
     7     5     6    1
     8     5    11    1
     9     5    12    1
    10     6     7    1
    11     6    13    1
    12     6    14    1
    13     7     8    1
    14     7    15    1
    15     7    16    1
    16     8    17    1
