@<TRIPOS>MOLECULE
2ET3_LLL_A_50
 70 72 0 0 0
SMALL
GASTEIGER

@<TRIPOS>ATOM
      1 C          -1.4681    3.5923   -0.8706 C.3     1  UNL1        0.1750
      2 H          -1.5025    4.5690   -0.3887 H       1  UNL1        0.0926
      3 O          -0.8901    2.6783    0.0801 O.3     1  UNL1       -0.3423
      4 C           0.5384    2.7992    0.2251 C.3     1  UNL1        0.1051
      5 H           0.9886    2.6311   -0.7628 H       1  UNL1        0.0639
      6 C           1.0505    1.6982    1.1960 C.3     1  UNL1        0.0355
      7 H           0.7123    1.9339    2.2138 H       1  UNL1        0.0485
      8 C           2.5796    1.6723    1.1603 C.3     1  UNL1       -0.0175
      9 C           3.1775    3.0034    1.6253 C.3     1  UNL1        0.0355
     10 H           3.0055    3.1152    2.7029 H       1  UNL1        0.0485
     11 N           4.6408    2.9161    1.4337 N.3     1  UNL1       -0.3250
     12 C           2.5557    4.2357    0.9062 C.3     1  UNL1        0.1051
     13 H           2.9573    4.3224   -0.1125 H       1  UNL1        0.0639
     14 C           1.0128    4.1540    0.8008 C.3     1  UNL1        0.1104
     15 H           0.5546    4.3142    1.7850 H       1  UNL1        0.0646
     16 O           0.5754    5.2643    0.0000 O.3     1  UNL1       -0.3865
     17 O           2.7985    5.4840    1.5858 O.3     1  UNL1       -0.3413
     18 C           4.1657    5.8372    1.7230 C.3     1  UNL1        0.1870
     19 H           4.6631    5.0898    2.3410 H       1  UNL1        0.0937
     20 C           4.2351    7.1792    2.4751 C.3     1  UNL1        0.1239
     21 H           3.6682    7.1141    3.4080 H       1  UNL1        0.0661
     22 O           3.5985    8.2335    1.7363 O.3     1  UNL1       -0.3851
     23 C           5.7200    7.5269    2.7311 C.3     1  UNL1        0.0692
     24 H           5.7940    8.5500    3.1230 H       1  UNL1        0.0517
     25 N           6.4117    6.6467    3.7296 N.3     1  UNL1       -0.3115
     26 C           5.7366    6.6055    5.0236 C.3     1  UNL1       -0.0154
     27 C           6.5231    7.4763    1.3803 C.3     1  UNL1        0.1043
     28 O           7.9355    7.5052    1.6680 O.3     1  UNL1       -0.3849
     29 C           6.2043    6.1814    0.6002 C.3     1  UNL1        0.0808
     30 O           4.7976    5.9589    0.4491 O.3     1  UNL1       -0.3459
     31 C           6.2431    8.6900    0.4865 C.3     1  UNL1       -0.0323
     32 N           0.5418    0.3540    0.8972 N.3     1  UNL1       -0.3250
     33 C          -2.9555    3.2241   -1.1601 C.3     1  UNL1        0.0566
     34 H          -3.5096    3.2512   -0.2169 H       1  UNL1        0.0508
     35 N          -3.1671    1.8707   -1.7261 N.3     1  UNL1       -0.3232
     36 C          -3.5265    4.2868   -2.1094 C.3     1  UNL1       -0.0307
     37 C          -2.6746    4.4449   -3.3655 C.3     1  UNL1       -0.0237
     38 C          -1.1739    4.5587   -3.0837 C.3     1  UNL1        0.0740
     39 H          -0.6748    4.2157   -4.0001 H       1  UNL1        0.0609
     40 O          -0.7095    3.6454   -2.0840 O.3     1  UNL1       -0.3453
     41 C          -0.6474    6.0087   -2.9079 C.3     1  UNL1        0.0196
     42 N          -1.1604    6.8093   -1.8051 N.3     1  UNL1       -0.3277
     43 H           2.9172    1.4487    0.1369 H       1  UNL1        0.0297
     44 H           2.9605    0.8629    1.7965 H       1  UNL1        0.0297
     45 H           4.8623    2.8935    0.4358 H       1  UNL1        0.1185
     46 H           4.9951    2.0407    1.8225 H       1  UNL1        0.1185
     47 H           0.9906    5.1604   -0.8744 H       1  UNL1        0.2100
     48 H           2.9287    7.7995    1.1752 H       1  UNL1        0.2101
     49 H           6.4969    5.6915    3.3734 H       1  UNL1        0.1221
     50 H           5.6211    7.6049    5.4439 H       1  UNL1        0.0388
     51 H           6.3383    6.0171    5.7249 H       1  UNL1        0.0388
     52 H           4.7588    6.1166    4.9682 H       1  UNL1        0.0388
     53 H           8.0053    7.4227    2.6413 H       1  UNL1        0.2103
     54 H           6.6592    5.3049    1.0784 H       1  UNL1        0.0590
     55 H           6.6426    6.2245   -0.4042 H       1  UNL1        0.0590
     56 H           6.2738    9.6174    1.0678 H       1  UNL1        0.0258
     57 H           5.2751    8.6287   -0.0186 H       1  UNL1        0.0258
     58 H           7.0136    8.7842   -0.2877 H       1  UNL1        0.0258
     59 H          -0.4724    0.4365    0.7675 H       1  UNL1        0.1185
     60 H           0.8941    0.0303   -0.0012 H       1  UNL1        0.1185
     61 H          -2.5472    1.7483   -2.5271 H       1  UNL1        0.1186
     62 H          -4.1187    1.7802   -2.0606 H       1  UNL1        0.1186
     63 H          -3.5816    5.2444   -1.5803 H       1  UNL1        0.0283
     64 H          -4.5598    4.0501   -2.3934 H       1  UNL1        0.0283
     65 H          -3.0232    5.2956   -3.9632 H       1  UNL1        0.0291
     66 H          -2.8329    3.5544   -3.9869 H       1  UNL1        0.0291
     67 H           0.4439    5.9743   -2.8079 H       1  UNL1        0.0447
     68 H          -0.8510    6.5631   -3.8317 H       1  UNL1        0.0447
     69 H          -0.7996    6.4613   -0.9103 H       1  UNL1        0.1183
     70 H          -2.1742    6.7966   -1.7606 H       1  UNL1        0.1183
@<TRIPOS>BOND
     1     1    33    1
     2     1    40    1
     3     1     3    1
     4     1     2    1
     5     4     6    1
     6     4     5    1
     7     4     3    1
     8     6     7    1
     9     6     8    1
    10     6    32    1
    11     8     9    1
    12     8    43    1
    13     8    44    1
    14     9    12    1
    15     9    11    1
    16     9    10    1
    17    11    45    1
    18    11    46    1
    19    12    13    1
    20    12    14    1
    21    12    17    1
    22    14     4    1
    23    14    16    1
    24    14    15    1
    25    16    47    1
    26    18    20    1
    27    18    30    1
    28    18    19    1
    29    18    17    1
    30    20    23    1
    31    20    22    1
    32    20    21    1
    33    22    48    1
    34    23    27    1
    35    23    25    1
    36    23    24    1
    37    25    26    1
    38    25    49    1
    39    26    50    1
    40    26    51    1
    41    26    52    1
    42    27    28    1
    43    27    29    1
    44    27    31    1
    45    28    53    1
    46    29    30    1
    47    29    54    1
    48    29    55    1
    49    31    56    1
    50    31    57    1
    51    31    58    1
    52    32    59    1
    53    32    60    1
    54    33    36    1
    55    33    35    1
    56    33    34    1
    57    35    61    1
    58    35    62    1
    59    36    37    1
    60    36    63    1
    61    36    64    1
    62    37    38    1
    63    37    65    1
    64    37    66    1
    65    38    40    1
    66    38    41    1
    67    38    39    1
    68    41    42    1
    69    41    67    1
    70    41    68    1
    71    42    69    1
    72    42    70    1
