@<TRIPOS>MOLECULE
3RKF_DX4_A_91
 16 17 0 0 0
SMALL
GASTEIGER

@<TRIPOS>ATOM
      1 C           0.7007   -0.5569    0.1373 C.ar    1  UNL1        0.1637
      2 C           0.9384    0.8001    0.0952 C.ar    1  UNL1        0.1383
      3 C          -0.1904    1.6726   -0.0406 C.ar    1  UNL1        0.1160
      4 S          -0.0092    3.3155   -0.1261 S.2     1  UNL1       -0.0303
      5 N          -1.3878    0.9840   -0.1736 N.ar    1  UNL1       -0.3203
      6 H          -2.2416    1.5292   -0.2425 H       1  UNL1        0.1691
      7 C          -1.5101   -0.4200   -0.0983 C.ar    1  UNL1        0.1930
      8 N          -2.8074   -0.8811   -0.1926 N.pl3   1  UNL1       -0.3289
      9 N          -0.4736   -1.2214    0.0209 N.ar    1  UNL1       -0.1967
     10 N           2.2681    1.0833    0.2270 N.ar    1  UNL1       -0.2317
     11 C           2.8402   -0.0993    0.3361 C.ar    1  UNL1        0.0957
     12 N           1.9306   -1.1267    0.2894 N.ar    1  UNL1       -0.3291
     13 H           2.1357   -2.1156    0.3555 H       1  UNL1        0.1682
     14 H          -3.1149   -1.4028    0.6261 H       1  UNL1        0.1451
     15 H          -3.4844   -0.1373   -0.3602 H       1  UNL1        0.1451
     16 H           3.8981   -0.2836    0.4540 H       1  UNL1        0.1027
@<TRIPOS>BOND
     1     2     1   ar
     2     3     2   ar
     3     4     3    2
     4     5     3   ar
     5     5     6    1
     6     7     5   ar
     7     8     7    1
     8     9     7   ar
     9     9     1   ar
    10    10     2   ar
    11    11    10   ar
    12    12    11   ar
    13    12    13    1
    14    12     1   ar
    15     8    14    1
    16     8    15    1
    17    11    16    1
