REMARK  1 active torsions:
REMARK  status: ('A' for Active; 'I' for Inactive)
REMARK    1  A    between atoms: N_8  and  C_7 
ROOT
ATOM      1  C   UNL d   1       0.701  -0.557   0.137  0.00  0.00     0.164 A 
ATOM      2  C   UNL d   1       0.938   0.800   0.095  0.00  0.00     0.142 A 
ATOM      3  C   UNL d   1      -0.190   1.673  -0.041  0.00  0.00     0.136 A 
ATOM      4  S   UNL d   1      -0.009   3.316  -0.126  0.00  0.00    -0.058 SA
ATOM      5  N   UNL d   1      -1.388   0.984  -0.174  0.00  0.00    -0.320 N 
ATOM      6  H   UNL d   1      -2.242   1.529  -0.242  0.00  0.00     0.169 HD
ATOM      7  C   UNL d   1      -1.510  -0.420  -0.098  0.00  0.00     0.180 A 
ATOM      8  N   UNL d   1      -0.474  -1.221   0.021  0.00  0.00    -0.200 NA
ATOM      9  N   UNL d   1       2.268   1.083   0.227  0.00  0.00    -0.237 NA
ATOM     10  C   UNL d   1       2.840  -0.099   0.336  0.00  0.00     0.209 A 
ATOM     11  N   UNL d   1       1.931  -1.127   0.289  0.00  0.00    -0.333 N 
ATOM     12  H   UNL d   1       2.136  -2.116   0.355  0.00  0.00     0.168 HD
ENDROOT
BRANCH   7  13
ATOM     13  N   UNL d   1      -2.807  -0.881  -0.193  0.00  0.00    -0.272 NA
ATOM     14  H   UNL d   1      -3.115  -1.403   0.626  0.00  0.00     0.127 HD
ATOM     15  H   UNL d   1      -3.484  -0.137  -0.360  0.00  0.00     0.127 HD
ENDBRANCH   7  13
TORSDOF 1
