@<TRIPOS>MOLECULE
4LVV_FFO_A_101
 25 27 0 0 0
SMALL
GASTEIGER
****
Coordinates from PDB:4LVV:A:101 Model:1 without hydrogens
@<TRIPOS>ATOM
      1 N           0.4290  -21.3520   24.5480 N.ar    1  UNL1       -0.1932
      2 C          -0.0850  -21.0170   25.7540 C.ar    1  UNL1        0.2605
      3 N          -1.4270  -21.3840   26.0710 N.pl3   1  UNL1       -0.0859
      4 N           0.6560  -20.3240   26.6700 N.ar    1  UNL1       -0.1712
      5 C           1.9350  -19.9430   26.4220 C.ar    1  UNL1        0.2982
      6 O           2.6340  -19.2580   27.3880 O.2     1  UNL1       -0.2636
      7 C           2.5140  -20.2870   25.1770 C.ar    1  UNL1        0.1461
      8 N           3.8600  -19.9270   24.7620 N.am    1  UNL1       -0.2432
      9 C           4.4930  -20.8600   23.9310 C.3     1  UNL1        0.1235
     10 C           3.6310  -21.0950   22.6640 C.3     1  UNL1        0.1357
     11 N           2.2770  -21.3730   22.9280 N.pl3   1  UNL1       -0.2172
     12 C           1.7130  -20.9960   24.2270 C.ar    1  UNL1        0.1691
     13 C           4.7240  -22.1660   24.6640 C.3     1  UNL1        0.1341
     14 N           5.6960  -22.1600   25.7220 N.pl3   1  UNL1       -0.2358
     15 C           9.7670  -22.6540   24.7950 C.ar    1  UNL1        0.0567
     16 C           8.8150  -22.8040   23.7960 C.ar    1  UNL1        0.0059
     17 C           7.4700  -22.6340   24.1010 C.ar    1  UNL1        0.0162
     18 C           7.0790  -22.3280   25.4030 C.ar    1  UNL1        0.0654
     19 C           8.0310  -22.1900   26.3980 C.ar    1  UNL1        0.0162
     20 C           9.3770  -22.3490   26.0910 C.ar    1  UNL1        0.0059
     21 C          11.2170  -22.8300   24.5030 C.2     1  UNL1        0.2842
     22 O          11.5870  -23.2100   23.3990 O.2     1  UNL1       -0.2667
     23 N          12.1650  -22.5630   25.5400 N.am    1  UNL1       -0.0837
     24 C           4.4740  -18.6600   25.0790 C.2     1  UNL1        0.3072
     25 O           5.5950  -18.3430   24.6960 O.2     1  UNL1       -0.2646
@<TRIPOS>BOND
     1     1     2   ar
     2     1    12   ar
     3     2     3    1
     4     2     4   ar
     5     4     5   ar
     6     5     6    2
     7     5     7   ar
     8     7     8    1
     9     7    12   ar
    10     8     9    1
    11     8    24   am
    12     9    10    1
    13     9    13    1
    14    10    11    1
    15    11    12    1
    16    13    14    1
    17    14    18    1
    18    15    16   ar
    19    15    20   ar
    20    15    21    1
    21    16    17   ar
    22    17    18   ar
    23    18    19   ar
    24    19    20   ar
    25    21    22    2
    26    21    23   am
    27    24    25    2
