4LVV_FFO_A_101
 OpenBabel10091713573D
Coordinates from PDB:4LVV:A:101 Model:1 without hydrogens
 25 27  0  0  0  0  0  0  0  0999 V2000
    0.4290  -21.3520   24.5480 N   0  0  0  0  0  0  0  0  0  0  0  0
   -0.0850  -21.0170   25.7540 C   0  0  0  0  0  0  0  0  0  0  0  0
   -1.4270  -21.3840   26.0710 N   0  0  0  0  0  0  0  0  0  0  0  0
    0.6560  -20.3240   26.6700 N   0  0  0  0  0  0  0  0  0  0  0  0
    1.9350  -19.9430   26.4220 C   0  0  0  0  0  0  0  0  0  0  0  0
    2.6340  -19.2580   27.3880 O   0  0  0  0  0  0  0  0  0  0  0  0
    2.5140  -20.2870   25.1770 C   0  0  0  0  0  0  0  0  0  0  0  0
    3.8600  -19.9270   24.7620 N   0  0  0  0  0  0  0  0  0  0  0  0
    4.4930  -20.8600   23.9310 C   0  0  2  0  0  0  0  0  0  0  0  0
    3.6310  -21.0950   22.6640 C   0  0  0  0  0  0  0  0  0  0  0  0
    2.2770  -21.3730   22.9280 N   0  0  0  0  0  0  0  0  0  0  0  0
    1.7130  -20.9960   24.2270 C   0  0  0  0  0  0  0  0  0  0  0  0
    4.7240  -22.1660   24.6640 C   0  0  0  0  0  0  0  0  0  0  0  0
    5.6960  -22.1600   25.7220 N   0  0  0  0  0  0  0  0  0  0  0  0
    9.7670  -22.6540   24.7950 C   0  0  0  0  0  0  0  0  0  0  0  0
    8.8150  -22.8040   23.7960 C   0  0  0  0  0  0  0  0  0  0  0  0
    7.4700  -22.6340   24.1010 C   0  0  0  0  0  0  0  0  0  0  0  0
    7.0790  -22.3280   25.4030 C   0  0  0  0  0  0  0  0  0  0  0  0
    8.0310  -22.1900   26.3980 C   0  0  0  0  0  0  0  0  0  0  0  0
    9.3770  -22.3490   26.0910 C   0  0  0  0  0  0  0  0  0  0  0  0
   11.2170  -22.8300   24.5030 C   0  0  0  0  0  0  0  0  0  0  0  0
   11.5870  -23.2100   23.3990 O   0  0  0  0  0  0  0  0  0  0  0  0
   12.1650  -22.5630   25.5400 N   0  0  0  0  0  0  0  0  0  0  0  0
    4.4740  -18.6600   25.0790 C   0  0  0  0  0  0  0  0  0  0  0  0
    5.5950  -18.3430   24.6960 O   0  0  0  0  0  0  0  0  0  0  0  0
  1  2  2  0  0  0  0
  1 12  1  0  0  0  0
  2  3  1  0  0  0  0
  2  4  1  0  0  0  0
  4  5  1  0  0  0  0
  5  6  2  0  0  0  0
  5  7  1  0  0  0  0
  7  8  1  0  0  0  0
  7 12  2  0  0  0  0
  8  9  1  0  0  0  0
  8 24  1  0  0  0  0
  9 10  1  0  0  0  0
  9 13  1  1  0  0  0
 10 11  1  0  0  0  0
 11 12  1  0  0  0  0
 13 14  1  0  0  0  0
 14 18  1  0  0  0  0
 15 16  2  0  0  0  0
 15 20  1  0  0  0  0
 15 21  1  0  0  0  0
 16 17  1  0  0  0  0
 17 18  2  0  0  0  0
 18 19  1  0  0  0  0
 19 20  2  0  0  0  0
 21 22  2  0  0  0  0
 21 23  1  0  0  0  0
 24 25  2  0  0  0  0
A    1
N1
A    2
C2
A    3
NA2
A    4
N3
A    5
C4
A    6
O4
A    7
C4A
A    8
N5
A    9
C6
A   10
C7
A   11
N8
A   12
C8A
A   13
C9
A   14
N10
A   15
C11
A   16
C12
A   17
C13
A   18
C14
A   19
C15
A   20
C16
A   21
C
A   22
O
A   23
N
A   24
C5A
A   25
O5B
M  END
>  <InstanceId>
4LVV_FFO_A_101

>  <ChemCompId>
FFO

>  <PdbId>
4LVV

>  <ChainId>
A

>  <ResidueNumber>
101

>  <InsertionCode>


>  <Model>
1

>  <AltIds>


>  <MissingHeavyAtoms>
9

>  <ObservedFormula>
C15 N7 O3

>  <Name>
N-[4-({[(6S)-2-amino-5-formyl-4-oxo-3,4,5,6,7,8-hexahydropteridin-6-yl]methyl}amino)benzoyl]-L-glutamic acid

>  <SystematicName>
2-[[4-[(2-azanyl-5-methanoyl-4-oxidanylidene-3,6,7,8-tetrahydropteridin-6-yl)methylamino]phenyl]carbonylamino]pentanedioic acid

>  <Synonyms>
[6S]-5-FORMYL-TETRAHYDROFOLATE; 6S-FOLINIC ACID

>  <Type>
NON-POLYMER

>  <Formula>
C20 H23 N7 O7

>  <MolecularWeight>
473.439

>  <ModifiedDate>
2011-09-06

>  <Parent>


>  <OneLetterCode>


>  <SubcomponentList>


>  <AmbiguousFlag>
N

>  <InChI>
InChI=1S/C20H23N7O7/c21-20-25-16-15(18(32)26-20)27(9-28)12(8-23-16)7-22-11-3-1-10(2-4-11)17(31)24-13(19(33)34)5-6-14(29)30/h1-4,9,12-13,22H,5-8H2,(H,24,31)(H,29,30)(H,33,34)(H4,21,23,25,26,32)/t12-,13-/m0/s1

>  <InChIKey>
VVIAGPKUTFNRDU-STQMWFEESA-N

>  <SMILES>
c1cc(ccc1C(=O)NC(CCC(=O)O)C(=O)O)NCC2CNC3=C(N2C=O)C(=O)NC(=N3)N

$$$$
