REMARK  5 active torsions:
REMARK  status: ('A' for Active; 'I' for Inactive)
REMARK    1  A    between atoms: N_8  and  C_24 
REMARK    2  A    between atoms: C_9  and  C_13 
REMARK    3  A    between atoms: C_13  and  N_14 
REMARK    4  A    between atoms: N_14  and  C_18 
REMARK    5  A    between atoms: C_15  and  C_21 
ROOT
ATOM      1  N   UNL d   1       0.429 -21.352  24.548  0.00  0.00    -0.194 NA
ATOM      2  C   UNL d   1      -0.085 -21.017  25.754  0.00  0.00     0.241 A 
ATOM      3  N   UNL d   1      -1.427 -21.384  26.071  0.00  0.00    -0.059 NA
ATOM      4  N   UNL d   1       0.656 -20.324  26.670  0.00  0.00    -0.187 NA
ATOM      5  C   UNL d   1       1.935 -19.943  26.422  0.00  0.00     0.234 A 
ATOM      6  O   UNL d   1       2.634 -19.258  27.388  0.00  0.00    -0.167 OA
ATOM      7  C   UNL d   1       2.514 -20.287  25.177  0.00  0.00     0.143 A 
ATOM      8  N   UNL d   1       3.860 -19.927  24.762  0.00  0.00    -0.284 N 
ATOM      9  C   UNL d   1       4.493 -20.860  23.931  0.00  0.00     0.137 C 
ATOM     10  C   UNL d   1       3.631 -21.095  22.664  0.00  0.00     0.152 C 
ATOM     11  N   UNL d   1       2.277 -21.373  22.928  0.00  0.00    -0.249 NA
ATOM     12  C   UNL d   1       1.713 -20.996  24.227  0.00  0.00     0.180 A 
ENDROOT
BRANCH   9  13
ATOM     13  C   UNL d   1       4.724 -22.166  24.664  0.00  0.00     0.150 C 
BRANCH  13  14
ATOM     14  N   UNL d   1       5.696 -22.160  25.722  0.00  0.00    -0.269 NA
BRANCH  14  15
ATOM     15  C   UNL d   1       7.079 -22.328  25.403  0.00  0.00     0.076 A 
ATOM     16  C   UNL d   1       7.470 -22.634  24.101  0.00  0.00     0.019 A 
ATOM     17  C   UNL d   1       8.815 -22.804  23.796  0.00  0.00     0.006 A 
ATOM     18  C   UNL d   1       9.767 -22.654  24.795  0.00  0.00     0.053 A 
ATOM     19  C   UNL d   1       9.377 -22.349  26.091  0.00  0.00     0.006 A 
ATOM     20  C   UNL d   1       8.031 -22.190  26.398  0.00  0.00     0.019 A 
BRANCH  18  21
ATOM     21  C   UNL d   1      11.217 -22.830  24.503  0.00  0.00     0.266 C 
ATOM     22  O   UNL d   1      11.587 -23.210  23.399  0.00  0.00    -0.271 OA
ATOM     23  N   UNL d   1      12.165 -22.563  25.540  0.00  0.00    -0.057 NA
ENDBRANCH  18  21
ENDBRANCH  14  15
ENDBRANCH  13  14
ENDBRANCH   9  13
BRANCH   8  24
ATOM     24  C   UNL d   1       4.474 -18.660  25.079  0.00  0.00     0.318 C 
ATOM     25  O   UNL d   1       5.595 -18.343  24.696  0.00  0.00    -0.262 OA
ENDBRANCH   8  24
TORSDOF 5
