@<TRIPOS>MOLECULE
2EES_HPA_A_90
 10 11 0 0 0
SMALL
GASTEIGER
****
Coordinates from PDB:2EES:A:90 Model:1 without hydrogens
@<TRIPOS>ATOM
      1 N         -12.2870  -11.2160    9.3950 N.ar    1  UNL1       -0.1841
      2 C         -11.9280  -12.5530    9.5770 C.ar    1  UNL1        0.2031
      3 N         -11.4210  -13.3040    8.5830 N.ar    1  UNL1       -0.2030
      4 C         -11.2940  -12.6100    7.3830 C.ar    1  UNL1        0.1881
      5 C         -11.6310  -11.2830    7.1100 C.ar    1  UNL1        0.1763
      6 C         -12.1800  -10.4770    8.1690 C.ar    1  UNL1        0.3014
      7 O         -12.5410   -9.3250    8.1820 O.2     1  UNL1       -0.2634
      8 N         -11.3220  -11.0050    5.7660 N.ar    1  UNL1       -0.2159
      9 C         -10.8060  -12.1610    5.2680 C.ar    1  UNL1        0.2005
     10 N         -10.7780  -13.1670    6.2440 N.ar    1  UNL1       -0.2031
@<TRIPOS>BOND
     1     1     2   ar
     2     1     6   ar
     3     2     3   ar
     4     3     4   ar
     5     4     5   ar
     6     4    10   ar
     7     5     6   ar
     8     5     8   ar
     9     6     7    2
    10     8     9   ar
    11     9    10   ar
