REMARK  0 active torsions:
REMARK  status: ('A' for Active; 'I' for Inactive)
ROOT
ATOM      1  N   UNL d   1     -12.287 -11.216   9.395  0.00  0.00    -0.184 NA
ATOM      2  C   UNL d   1     -11.928 -12.553   9.577  0.00  0.00     0.203 A 
ATOM      3  N   UNL d   1     -11.421 -13.304   8.583  0.00  0.00    -0.203 NA
ATOM      4  C   UNL d   1     -11.294 -12.610   7.383  0.00  0.00     0.188 A 
ATOM      5  C   UNL d   1     -11.631 -11.283   7.110  0.00  0.00     0.176 A 
ATOM      6  C   UNL d   1     -12.180 -10.477   8.169  0.00  0.00     0.301 A 
ATOM      7  O   UNL d   1     -12.541  -9.325   8.182  0.00  0.00    -0.263 OA
ATOM      8  N   UNL d   1     -11.322 -11.005   5.766  0.00  0.00    -0.216 NA
ATOM      9  C   UNL d   1     -10.806 -12.161   5.268  0.00  0.00     0.201 A 
ATOM     10  N   UNL d   1     -10.778 -13.167   6.244  0.00  0.00    -0.203 NA
ENDROOT
TORSDOF 0
