2EES_HPA_A_90
 OpenBabel10091713573D
Coordinates from PDB:2EES:A:90 Model:1 without hydrogens
 10 11  0  0  0  0  0  0  0  0999 V2000
  -12.2870  -11.2160    9.3950 N   0  0  0  0  0  0  0  0  0  0  0  0
  -11.9280  -12.5530    9.5770 C   0  0  0  0  0  0  0  0  0  0  0  0
  -11.4210  -13.3040    8.5830 N   0  0  0  0  0  0  0  0  0  0  0  0
  -11.2940  -12.6100    7.3830 C   0  0  0  0  0  0  0  0  0  0  0  0
  -11.6310  -11.2830    7.1100 C   0  0  0  0  0  0  0  0  0  0  0  0
  -12.1800  -10.4770    8.1690 C   0  0  0  0  0  0  0  0  0  0  0  0
  -12.5410   -9.3250    8.1820 O   0  0  0  0  0  0  0  0  0  0  0  0
  -11.3220  -11.0050    5.7660 N   0  0  0  0  0  0  0  0  0  0  0  0
  -10.8060  -12.1610    5.2680 C   0  0  0  0  0  0  0  0  0  0  0  0
  -10.7780  -13.1670    6.2440 N   0  0  0  0  0  0  0  0  0  0  0  0
  1  2  1  0  0  0  0
  1  6  1  0  0  0  0
  2  3  2  0  0  0  0
  3  4  1  0  0  0  0
  4  5  2  0  0  0  0
  4 10  1  0  0  0  0
  5  6  1  0  0  0  0
  5  8  1  0  0  0  0
  6  7  2  0  0  0  0
  8  9  1  0  0  0  0
  9 10  2  0  0  0  0
A    1
N1
A    2
C2
A    3
N3
A    4
C4
A    5
C5
A    6
C6
A    7
O6
A    8
N7
A    9
C8
A   10
N9
M  END
>  <InstanceId>
2EES_HPA_A_90

>  <ChemCompId>
HPA

>  <PdbId>
2EES

>  <ChainId>
A

>  <ResidueNumber>
90

>  <InsertionCode>


>  <Model>
1

>  <AltIds>


>  <MissingHeavyAtoms>
0

>  <ObservedFormula>
C5 N4 O

>  <Name>
HYPOXANTHINE

>  <SystematicName>
1,7-dihydropurin-6-one

>  <Synonyms>


>  <Type>
NON-POLYMER

>  <Formula>
C5 H4 N4 O

>  <MolecularWeight>
136.111

>  <ModifiedDate>
2011-06-04

>  <Parent>


>  <OneLetterCode>


>  <SubcomponentList>


>  <AmbiguousFlag>
N

>  <InChI>
InChI=1S/C5H4N4O/c10-5-3-4(7-1-6-3)8-2-9-5/h1-2H,(H2,6,7,8,9,10)

>  <InChIKey>
FDGQSTZJBFJUBT-UHFFFAOYSA-N

>  <SMILES>
c1[nH]c2c(n1)N=CNC2=O

$$$$
