3G4M_2BP_A_91
 OpenBabel10091713573D
Coordinates from PDB:3G4M:A:91 Model:1 without hydrogens
 15 16  0  0  0  0  0  0  0  0999 V2000
   72.8230   11.6790    6.0250 N   0  0  0  0  0  0  0  0  0  0  0  0
   73.0080   10.8960    4.9120 C   0  0  0  0  0  0  0  0  0  0  0  0
   73.5840    9.7690    5.2450 N   0  0  0  0  0  0  0  0  0  0  0  0
   73.8030    9.7570    6.5840 C   0  0  0  0  0  0  0  0  0  0  0  0
   74.3810    8.8210    7.5010 C   0  0  0  0  0  0  0  0  0  0  0  0
   74.4400    9.1480    8.8350 N   0  0  0  0  0  0  0  0  0  0  0  0
   73.9510   10.3600    9.2830 C   0  0  0  0  0  0  0  0  0  0  0  0
   74.0230   10.6610   10.6180 N   0  0  0  0  0  0  0  0  0  0  0  0
   73.4090   11.2450    8.4380 N   0  0  0  0  0  0  0  0  0  0  0  0
   73.3170   10.9860    7.1040 C   0  0  0  0  0  0  0  0  0  0  0  0
   72.4117   12.5732    6.0460 H   0  0  0  0  0  0  0  0  0  0  0  0
   72.7328   11.1582    3.9525 H   0  0  0  0  0  0  0  0  0  0  0  0
   74.7471    7.9162    7.1660 H   0  0  0  0  0  0  0  0  0  0  0  0
   74.4200   10.0163   11.2473 H   0  0  0  0  0  0  0  0  0  0  0  0
   73.6777   11.5220   10.9478 H   0  0  0  0  0  0  0  0  0  0  0  0
  1 10  1  0  0  0  0
  1 11  1  0  0  0  0
  2  1  1  0  0  0  0
  2  3  2  0  0  0  0
  2 12  1  0  0  0  0
  3  4  1  0  0  0  0
  4 10  2  0  0  0  0
  4  5  1  0  0  0  0
  5  6  2  0  0  0  0
  5 13  1  0  0  0  0
  6  7  1  0  0  0  0
  7  8  1  0  0  0  0
  8 14  1  0  0  0  0
  8 15  1  0  0  0  0
  9  7  2  0  0  0  0
 10  9  1  0  0  0  0
M  END
$$$$
