@<TRIPOS>MOLECULE
4YAZ_4BW_R_106
 69 75 0 0 0
SMALL
GASTEIGER

@<TRIPOS>ATOM
      1 O           0.0000    0.0000    0.0000 O.2     1  UNL1       -0.2654
      2 C          -0.0000   -0.0000    0.0000 C.ar    1  UNL1        0.2803
      3 N          -0.0000   -0.0000    0.0000 N.ar    1  UNL1       -0.2934
      4 H          -0.0000   -0.0000    0.0000 H       1  UNL1        0.1716
      5 C          -0.0000   -0.0000    0.0000 C.ar    1  UNL1        0.1950
      6 N          -0.0000   -0.0000    0.0000 N.pl3   1  UNL1       -0.3289
      7 N          -0.0000   -0.0000    0.0000 N.ar    1  UNL1       -0.1963
      8 C          -0.0000   -0.0000    0.0000 C.ar    1  UNL1        0.1712
      9 C          -0.0000   -0.0000    0.0000 C.ar    1  UNL1        0.1721
     10 N          -0.0000   -0.0000    0.0000 N.ar    1  UNL1       -0.2286
     11 C          -0.0000   -0.0000    0.0000 C.ar    1  UNL1        0.1005
     12 N          -0.0000   -0.0000    0.0000 N.ar    1  UNL1       -0.2854
     13 C          -0.0000   -0.0000    0.0000 C.3     1  UNL1        0.1667
     14 H          -0.0000   -0.0000    0.0000 H       1  UNL1        0.0866
     15 C          -0.0000   -0.0000    0.0000 C.3     1  UNL1        0.1294
     16 H          -0.0000   -0.0000    0.0000 H       1  UNL1        0.0666
     17 O          -0.0000   -0.0000    0.0000 O.3     1  UNL1       -0.3846
     18 C          -0.0000   -0.0000    0.0000 C.3     1  UNL1        0.1283
     19 H          -0.0000   -0.0000    0.0000 H       1  UNL1        0.0656
     20 C          -0.0000   -0.0000    0.0000 C.3     1  UNL1        0.1142
     21 H          -0.0000   -0.0000    0.0000 H       1  UNL1        0.0647
     22 O          -0.0000   -0.0000   -0.0000 O.3     1  UNL1       -0.3456
     23 C           0.0000   -0.0000   -0.0000 C.3     1  UNL1        0.0879
     24 O          -0.0000   -0.0000    0.0000 O.3     1  UNL1       -0.2840
     25 P          -0.0000   -0.0000    0.0000 P.3     1  UNL1        0.4754
     26 O          -0.0000   -0.0000    0.0000 O.2     1  UNL1       -0.2273
     27 O          -0.0000   -0.0000    0.0000 O.3     1  UNL1       -0.2779
     28 C          -0.0000   -0.0000    0.0000 C.3     1  UNL1        0.1283
     29 H          -0.0000   -0.0000    0.0000 H       1  UNL1        0.0656
     30 C          -0.0000   -0.0000    0.0000 C.3     1  UNL1        0.1142
     31 H          -0.0000   -0.0000    0.0000 H       1  UNL1        0.0647
     32 C          -0.0000   -0.0000    0.0000 C.3     1  UNL1        0.0879
     33 O          -0.0000   -0.0000   -0.0000 O.3     1  UNL1       -0.2840
     34 P          -0.0000   -0.0000    0.0000 P.3     1  UNL1        0.4754
     35 O          -0.0000   -0.0000    0.0000 O.2     1  UNL1       -0.2273
     36 O          -0.0000   -0.0000    0.0000 O.3     1  UNL1       -0.2779
     37 O          -0.0000   -0.0000    0.0000 O.3     1  UNL1       -0.3025
     38 O          -0.0000   -0.0000    0.0000 O.3     1  UNL1       -0.3456
     39 C          -0.0000   -0.0000    0.0000 C.3     1  UNL1        0.1667
     40 H          -0.0000   -0.0000    0.0000 H       1  UNL1        0.0866
     41 C          -0.0000   -0.0000    0.0000 C.3     1  UNL1        0.1294
     42 H          -0.0000   -0.0000    0.0000 H       1  UNL1        0.0666
     43 O          -0.0000   -0.0000    0.0000 O.3     1  UNL1       -0.3846
     44 N          -0.0000   -0.0000    0.0000 N.ar    1  UNL1       -0.2855
     45 C          -0.0000   -0.0000    0.0000 C.ar    1  UNL1        0.1004
     46 N          -0.0000   -0.0000    0.0000 N.ar    1  UNL1       -0.2306
     47 C          -0.0000   -0.0000    0.0000 C.ar    1  UNL1        0.1473
     48 C          -0.0000   -0.0000    0.0000 C.ar    1  UNL1        0.1674
     49 N          -0.0000   -0.0000    0.0000 N.ar    1  UNL1       -0.2159
     50 C          -0.0000   -0.0000    0.0000 C.ar    1  UNL1        0.1205
     51 N          -0.0000   -0.0000    0.0000 N.ar    1  UNL1       -0.2188
     52 C          -0.0000   -0.0000    0.0000 C.ar    1  UNL1        0.1472
     53 N          -0.0000   -0.0000    0.0000 N.pl3   1  UNL1       -0.3413
     54 O          -0.0000   -0.0000    0.0000 O.3     1  UNL1       -0.3025
     55 H          -0.0000   -0.0000    0.0000 H       1  UNL1        0.1451
     56 H          -0.0000   -0.0000    0.0000 H       1  UNL1        0.1451
     57 H          -0.0000   -0.0000    0.0000 H       1  UNL1        0.1030
     58 H           0.0000    0.0000    0.0000 H       1  UNL1        0.2101
     59 H           0.0000    0.0000    0.0000 H       1  UNL1        0.0592
     60 H           0.0000    0.0000    0.0000 H       1  UNL1        0.0592
     61 H           0.0000    0.0000    0.0000 H       1  UNL1        0.0592
     62 H           0.0000    0.0000    0.0000 H       1  UNL1        0.0592
     63 H           0.0000    0.0000    0.0000 H       1  UNL1        0.2220
     64 H           0.0000    0.0000    0.0000 H       1  UNL1        0.2101
     65 H          -0.0000   -0.0000    0.0000 H       1  UNL1        0.1030
     66 H          -0.0000   -0.0000    0.0000 H       1  UNL1        0.1048
     67 H          -0.0000   -0.0000    0.0000 H       1  UNL1        0.1438
     68 H          -0.0000   -0.0000    0.0000 H       1  UNL1        0.1438
     69 H           0.0000    0.0000    0.0000 H       1  UNL1        0.2220
@<TRIPOS>BOND
     1     1     2    2
     2     2     3   ar
     3     2     9   ar
     4     3     4    1
     5     3     5   ar
     6     5     6    1
     7     5     7   ar
     8     6    55    1
     9     6    56    1
    10     7     8   ar
    11     8     9   ar
    12     8    12   ar
    13     9    10   ar
    14    10    11   ar
    15    11    12   ar
    16    11    57    1
    17    13    15    1
    18    13    22    1
    19    13    14    1
    20    13    12    1
    21    15    18    1
    22    15    17    1
    23    15    16    1
    24    17    58    1
    25    18    20    1
    26    18    36    1
    27    18    19    1
    28    20    22    1
    29    20    23    1
    30    20    21    1
    31    23    24    1
    32    23    59    1
    33    23    60    1
    34    25    24    1
    35    25    27    1
    36    25    26    2
    37    25    54    1
    38    27    28    1
    39    28    30    1
    40    28    41    1
    41    28    29    1
    42    30    32    1
    43    30    38    1
    44    30    31    1
    45    32    33    1
    46    32    61    1
    47    32    62    1
    48    34    33    1
    49    34    36    1
    50    34    37    1
    51    34    35    2
    52    37    63    1
    53    38    39    1
    54    39    41    1
    55    39    40    1
    56    39    44    1
    57    41    43    1
    58    41    42    1
    59    43    64    1
    60    44    45   ar
    61    44    48   ar
    62    45    46   ar
    63    45    65    1
    64    46    47   ar
    65    47    48   ar
    66    47    52   ar
    67    48    49   ar
    68    49    50   ar
    69    50    51   ar
    70    50    66    1
    71    51    52   ar
    72    52    53    1
    73    53    67    1
    74    53    68    1
    75    54    69    1
