REMARK  Name = 4YAZ_4BW_R_106
REMARK  6 active torsions:
REMARK  status: ('A' for Active; 'I' for Inactive)
REMARK    1  A    between atoms: N_12  and  C_13
REMARK    2  A    between atoms: C_15  and  O_17
REMARK    3  A    between atoms: P_25  and  O_54
REMARK    4  A    between atoms: P_34  and  O_37
REMARK    5  A    between atoms: C_39  and  N_44
REMARK    6  A    between atoms: C_41  and  O_43
REMARK                            x       y       z     vdW  Elec       q    Type
REMARK                         _______ _______ _______ _____ _____    ______ ____
ROOT
ATOM      1  C   UNL     1       0.000   0.000   0.000  0.00  0.00    +0.253 C 
ATOM      2  O   UNL     1       0.000   0.000   0.000  0.00  0.00    -0.346 OA
ATOM      3  C   UNL     1       0.000   0.000   0.000  0.00  0.00    +0.179 C 
ATOM      4  C   UNL     1       0.000   0.000   0.000  0.00  0.00    +0.206 C 
ATOM      5  O   UNL     1       0.000   0.000   0.000  0.00  0.00    -0.284 OA
ATOM      6  P   UNL     1       0.000   0.000   0.000  0.00  0.00    +0.475 P 
ATOM      7  O   UNL     1       0.000   0.000   0.000  0.00  0.00    -0.227 OA
ATOM      8  O   UNL     1       0.000   0.000   0.000  0.00  0.00    -0.278 OA
ATOM      9  C   UNL     1       0.000   0.000   0.000  0.00  0.00    +0.194 C 
ATOM     10  C   UNL     1       0.000   0.000   0.000  0.00  0.00    +0.196 C 
ATOM     11  C   UNL     1       0.000   0.000   0.000  0.00  0.00    +0.253 C 
ATOM     12  O   UNL     1       0.000   0.000   0.000  0.00  0.00    -0.346 OA
ATOM     13  C   UNL     1       0.000   0.000   0.000  0.00  0.00    +0.179 C 
ATOM     14  C   UNL     1       0.000   0.000   0.000  0.00  0.00    +0.206 C 
ATOM     15  O   UNL     1       0.000   0.000   0.000  0.00  0.00    -0.284 OA
ATOM     16  P   UNL     1       0.000   0.000   0.000  0.00  0.00    +0.475 P 
ATOM     17  O   UNL     1       0.000   0.000   0.000  0.00  0.00    -0.227 OA
ATOM     18  O   UNL     1       0.000   0.000   0.000  0.00  0.00    -0.278 OA
ATOM     19  C   UNL     1       0.000   0.000   0.000  0.00  0.00    +0.194 C 
ATOM     20  C   UNL     1       0.000   0.000   0.000  0.00  0.00    +0.196 C 
ENDROOT
BRANCH   1  26
ATOM     21  O   UNL     1       0.000   0.000   0.000  0.00  0.00    -0.265 OA
ATOM     22  C   UNL     1       0.000   0.000   0.000  0.00  0.00    +0.280 A 
ATOM     23  C   UNL     1       0.000   0.000   0.000  0.00  0.00    +0.172 A 
ATOM     24  N   UNL     1       0.000   0.000   0.000  0.00  0.00    -0.229 NA
ATOM     25  C   UNL     1       0.000   0.000   0.000  0.00  0.00    +0.203 A 
ATOM     26  N   UNL     1       0.000   0.000   0.000  0.00  0.00    -0.285 N 
ATOM     27  C   UNL     1       0.000   0.000   0.000  0.00  0.00    +0.171 A 
ATOM     28  N   UNL     1       0.000   0.000   0.000  0.00  0.00    -0.196 NA
ATOM     29  C   UNL     1       0.000   0.000   0.000  0.00  0.00    +0.195 A 
ATOM     30  N   UNL     1       0.000   0.000   0.000  0.00  0.00    -0.329 N 
ATOM     31  H   UNL     1       0.000   0.000   0.000  0.00  0.00    +0.145 HD
ATOM     32  H   UNL     1       0.000   0.000   0.000  0.00  0.00    +0.145 HD
ATOM     33  N   UNL     1       0.000   0.000   0.000  0.00  0.00    -0.293 N 
ATOM     34  H   UNL     1       0.000   0.000   0.000  0.00  0.00    +0.172 HD
ENDBRANCH   1  26
BRANCH  11  35
ATOM     35  N   UNL     1       0.000   0.000   0.000  0.00  0.00    -0.286 N 
ATOM     36  C   UNL     1       0.000   0.000   0.000  0.00  0.00    +0.167 A 
ATOM     37  N   UNL     1       0.000   0.000   0.000  0.00  0.00    -0.216 NA
ATOM     38  C   UNL     1       0.000   0.000   0.000  0.00  0.00    +0.225 A 
ATOM     39  N   UNL     1       0.000   0.000   0.000  0.00  0.00    -0.219 NA
ATOM     40  C   UNL     1       0.000   0.000   0.000  0.00  0.00    +0.147 A 
ATOM     41  N   UNL     1       0.000   0.000   0.000  0.00  0.00    -0.341 N 
ATOM     42  H   UNL     1       0.000   0.000   0.000  0.00  0.00    +0.144 HD
ATOM     43  H   UNL     1       0.000   0.000   0.000  0.00  0.00    +0.144 HD
ATOM     44  C   UNL     1       0.000   0.000   0.000  0.00  0.00    +0.147 A 
ATOM     45  N   UNL     1       0.000   0.000   0.000  0.00  0.00    -0.231 NA
ATOM     46  C   UNL     1       0.000   0.000   0.000  0.00  0.00    +0.203 A 
ENDBRANCH  11  35
BRANCH   6  47
ATOM     47  O   UNL     1       0.000   0.000   0.000  0.00  0.00    -0.302 OA
ATOM     48  H   UNL     1       0.000   0.000   0.000  0.00  0.00    +0.222 HD
ENDBRANCH   6  47
BRANCH  10  49
ATOM     49  O   UNL     1       0.000   0.000   0.000  0.00  0.00    -0.385 OA
ATOM     50  H   UNL     1       0.000   0.000   0.000  0.00  0.00    +0.210 HD
ENDBRANCH  10  49
BRANCH  16  51
ATOM     51  O   UNL     1       0.000   0.000   0.000  0.00  0.00    -0.302 OA
ATOM     52  H   UNL     1       0.000   0.000   0.000  0.00  0.00    +0.222 HD
ENDBRANCH  16  51
BRANCH  20  53
ATOM     53  O   UNL     1       0.000   0.000   0.000  0.00  0.00    -0.385 OA
ATOM     54  H   UNL     1       0.000   0.000   0.000  0.00  0.00    +0.210 HD
ENDBRANCH  20  53
TORSDOF 6
