REMARK  11 active torsions:
REMARK  status: ('A' for Active; 'I' for Inactive)
REMARK    1  A    between atoms: C_2  and  O_1 
REMARK    2  A    between atoms: O_4  and  C_3 
REMARK    3  A    between atoms: N_6  and  C_5 
REMARK    4  A    between atoms: N_9  and  C_8 
REMARK    5  A    between atoms: O_11  and  C_10 
REMARK    6  A    between atoms: C_12  and  O_11 
REMARK    7  A    between atoms: C_15  and  C_14 
REMARK    8  A    between atoms: N_16  and  C_15 
REMARK    9  A    between atoms: O_18  and  C_17 
REMARK   10  A    between atoms: O_20  and  C_19 
REMARK   11  A    between atoms: N_22  and  C_21 
ROOT
ATOM      1  C   UNL d   1       0.799  -0.400  -0.527  0.00  0.00     0.296 C 
ATOM      2  O   UNL d   1       1.799  -1.227   0.058  0.00  0.00    -0.349 OA
ATOM      3  C   UNL d   1       3.050  -0.568   0.372  0.00  0.00     0.183 C 
ATOM      4  C   UNL d   1       3.190   0.847  -0.227  0.00  0.00     0.179 C 
ATOM      5  C   UNL d   1       2.764   0.776  -1.688  0.00  0.00     0.187 C 
ATOM      6  C   UNL d   1       1.300   0.357  -1.809  0.00  0.00     0.303 C 
ENDROOT
BRANCH   1   7
ATOM      7  O   UNL d   1      -0.297  -1.192  -0.969  0.00  0.00    -0.349 OA
BRANCH   7   8
ATOM      8  C   UNL d   1      -1.387  -1.589  -0.118  0.00  0.00     0.189 C 
ATOM      9  C   UNL d   1      -2.639  -1.175  -0.938  0.00  0.00     0.251 C 
ATOM     10  C   UNL d   1      -2.849   0.361  -0.952  0.00  0.00     0.076 C 
ATOM     11  C   UNL d   1      -2.357   1.072   0.321  0.00  0.00     0.251 C 
ATOM     12  C   UNL d   1      -2.415   0.111   1.519  0.00  0.00     0.182 C 
ATOM     13  C   UNL d   1      -1.449  -1.074   1.333  0.00  0.00     0.180 C 
BRANCH   9  14
ATOM     14  N   UNL d   1      -3.895  -1.810  -0.506  0.00  0.00     0.085 N 
ATOM     15  H   UNL d   1      -3.697  -2.718  -0.078  0.00  0.00     0.313 HD
ATOM     16  H   UNL d   1      -4.470  -2.022  -1.323  0.00  0.00     0.313 HD
ENDBRANCH   9  14
BRANCH  11  17
ATOM     17  N   UNL d   1      -3.112   2.307   0.567  0.00  0.00     0.085 N 
ATOM     18  H   UNL d   1      -3.076   2.899  -0.264  0.00  0.00     0.313 HD
ATOM     19  H   UNL d   1      -2.639   2.831   1.306  0.00  0.00     0.313 HD
ENDBRANCH  11  17
BRANCH  12  20
ATOM     20  O   UNL d   1      -2.046   0.802   2.727  0.00  0.00    -0.391 OA
ATOM     21  H   UNL d   1      -2.859   1.272   2.994  0.00  0.00     0.210 HD
ENDBRANCH  12  20
BRANCH  13  22
ATOM     22  O   UNL d   1      -1.873  -2.137   2.210  0.00  0.00    -0.390 OA
ATOM     23  H   UNL d   1      -1.911  -1.736   3.103  0.00  0.00     0.210 HD
ENDBRANCH  13  22
ENDBRANCH   7   8
ENDBRANCH   1   7
BRANCH   6  24
ATOM     24  N   UNL d   1       1.118  -0.416  -3.069  0.00  0.00     0.090 N 
ATOM     25  H   UNL d   1       0.305  -0.039  -3.561  0.00  0.00     0.313 HD
ATOM     26  H   UNL d   1       0.793  -1.353  -2.789  0.00  0.00     0.313 HD
ENDBRANCH   6  24
BRANCH   3  27
ATOM     27  C   UNL d   1       3.300  -0.606   1.900  0.00  0.00     0.301 C 
BRANCH  27  28
ATOM     28  N   UNL d   1       2.371   0.183   2.710  0.00  0.00     0.080 N 
ATOM     29  H   UNL d   1       1.409   0.053   2.416  0.00  0.00     0.312 HD
ATOM     30  H   UNL d   1       2.614   1.171   2.687  0.00  0.00     0.312 HD
ENDBRANCH  27  28
ENDBRANCH   3  27
BRANCH   5  31
ATOM     31  O   UNL d   1       2.953   2.056  -2.325  0.00  0.00    -0.391 OA
ATOM     32  H   UNL d   1       2.861   1.881  -3.284  0.00  0.00     0.210 HD
ENDBRANCH   5  31
BRANCH   4  33
ATOM     33  O   UNL d   1       4.536   1.325  -0.151  0.00  0.00    -0.390 OA
ATOM     34  H   UNL d   1       4.563   2.086  -0.774  0.00  0.00     0.210 HD
ENDBRANCH   4  33
TORSDOF 11
