ligand.pdb
 OpenBabel03221815293D

 51 53  0  0  1  0  0  0  0  0999 V2000
   -1.5340   -8.8130   17.8870 N   0  0  0  0  0  0  0  0  0  0  0  0
   -2.0340   -9.2490   16.5970 C   0  0  2  0  0  0  0  0  0  0  0  0
   -2.9390   -8.1720   16.0830 C   0  0  0  0  0  0  0  0  0  0  0  0
   -4.1660   -8.2470   16.3090 O   0  0  0  0  0  0  0  0  0  0  0  0
   -2.8020  -10.5660   16.7380 C   0  0  0  0  0  0  0  0  0  0  0  0
   -1.8420  -11.7670   16.8880 C   0  0  0  0  0  0  0  0  0  0  0  0
   -2.5770  -13.2710   17.0020 S   0  0  2  0  0  0  0  0  0  0  0  0
   -2.6530  -13.9630   15.4940 C   0  0  0  0  0  0  0  0  0  0  0  0
   -4.1220  -13.1020   17.6600 C   0  0  0  0  0  0  0  0  0  0  0  0
   -4.1950  -13.3870   19.1750 C   0  0  1  0  0  0  0  0  0  0  0  0
   -3.1790  -12.7050   19.9290 O   0  0  0  0  0  0  0  0  0  0  0  0
   -5.4690  -12.8770   19.8290 C   0  0  1  0  0  0  0  0  0  0  0  0
   -6.6800  -13.6230   19.5930 O   0  0  0  0  0  0  0  0  0  0  0  0
   -5.0430  -12.8470   21.2760 C   0  0  1  0  0  0  0  0  0  0  0  0
   -4.9430  -14.1740   21.7840 O   0  0  0  0  0  0  0  0  0  0  0  0
   -3.6680  -12.2530   21.1940 C   0  0  2  0  0  0  0  0  0  0  0  0
   -2.4470   -7.1990   15.4630 O   0  0  0  0  0  0  0  0  0  0  0  0
   -5.6590   -7.5270   19.7880 N   0  0  0  0  0  0  0  0  0  0  0  0
   -5.9970   -8.7620   19.3440 C   0  0  0  0  0  0  0  0  0  0  0  0
   -5.4000   -9.8820   19.7850 N   0  0  0  0  0  0  0  0  0  0  0  0
   -4.4390   -9.8510   20.7150 C   0  0  0  0  0  0  0  0  0  0  0  0
   -4.0470   -8.5550   21.2480 C   0  0  0  0  0  0  0  0  0  0  0  0
   -4.6980   -7.3240   20.7430 C   0  0  0  0  0  0  0  0  0  0  0  0
   -4.3650   -6.0680   21.2060 N   0  0  0  0  0  0  0  0  0  0  0  0
   -3.1130   -8.8030   22.1380 N   0  0  0  0  0  0  0  0  0  0  0  0
   -2.8910  -10.1240   22.1780 C   0  0  0  0  0  0  0  0  0  0  0  0
   -3.6910  -10.7640   21.3260 N   0  0  0  0  0  0  0  0  0  0  0  0
   -1.0256   -7.9357   17.7758 H   0  0  0  0  0  0  0  0  0  0  0  0
   -0.9078   -9.5231   18.2666 H   0  0  0  0  0  0  0  0  0  0  0  0
   -1.2244   -9.4186   15.9182 H   0  0  0  0  0  0  0  0  0  0  0  0
   -3.4069  -10.7108   15.8674 H   0  0  0  0  0  0  0  0  0  0  0  0
   -3.4086  -10.5088   17.6176 H   0  0  0  0  0  0  0  0  0  0  0  0
   -1.2615  -11.6160   17.7740 H   0  0  0  0  0  0  0  0  0  0  0  0
   -1.2609  -11.7919   15.9899 H   0  0  0  0  0  0  0  0  0  0  0  0
   -1.8483  -14.0787   17.8182 H   0  0  0  0  0  0  0  0  0  0  0  0
   -3.2245  -13.3358   14.8422 H   0  0  0  0  0  0  0  0  0  0  0  0
   -3.1201  -14.9230   15.5652 H   0  0  0  0  0  0  0  0  0  0  0  0
   -1.6634  -14.0760   15.1031 H   0  0  0  0  0  0  0  0  0  0  0  0
   -4.7776  -13.7824   17.1579 H   0  0  0  0  0  0  0  0  0  0  0  0
   -4.4057  -12.0793   17.5239 H   0  0  0  0  0  0  0  0  0  0  0  0
   -4.1051  -14.4528   19.2038 H   0  0  0  0  0  0  0  0  0  0  0  0
   -5.7843  -11.9406   19.4185 H   0  0  0  0  0  0  0  0  0  0  0  0
   -6.5687  -14.5308   19.9161 H   0  0  0  0  0  0  0  0  0  0  0  0
   -5.7208  -12.3125   21.9083 H   0  0  0  0  0  0  0  0  0  0  0  0
   -4.3333  -14.6869   21.2308 H   0  0  0  0  0  0  0  0  0  0  0  0
   -3.0300  -12.5599   21.9963 H   0  0  0  0  0  0  0  0  0  0  0  0
   -1.5242   -7.1628   15.3044 H   0  0  0  0  0  0  0  0  0  0  0  0
   -6.7445   -8.8457   18.6374 H   0  0  0  0  0  0  0  0  0  0  0  0
   -4.8208   -5.2735   20.8451 H   0  0  0  0  0  0  0  0  0  0  0  0
   -3.6715   -5.9661   21.8973 H   0  0  0  0  0  0  0  0  0  0  0  0
   -2.1950  -10.5832   22.7861 H   0  0  0  0  0  0  0  0  0  0  0  0
  1 28  1  0  0  0  0
  1 29  1  0  0  0  0
  2  3  1  0  0  0  0
  2  5  1  0  0  0  0
  2  1  1  0  0  0  0
  2 30  1  6  0  0  0
  3  4  2  0  0  0  0
  3 17  1  0  0  0  0
  5  6  1  0  0  0  0
  5 31  1  0  0  0  0
  5 32  1  0  0  0  0
  6  7  1  0  0  0  0
  6 33  1  0  0  0  0
  6 34  1  0  0  0  0
  7  8  1  0  0  0  0
  7  9  1  0  0  0  0
  7 35  1  1  0  0  0
  8 36  1  0  0  0  0
  8 37  1  0  0  0  0
  8 38  1  0  0  0  0
  9 39  1  0  0  0  0
  9 40  1  0  0  0  0
 10 11  1  0  0  0  0
 10 12  1  1  0  0  0
 10  9  1  0  0  0  0
 10 41  1  0  0  0  0
 11 16  1  0  0  0  0
 12 13  1  0  0  0  0
 12 14  1  1  0  0  0
 12 42  1  0  0  0  0
 13 43  1  0  0  0  0
 14 15  1  0  0  0  0
 14 16  1  1  0  0  0
 14 44  1  0  0  0  0
 15 45  1  0  0  0  0
 16 27  1  0  0  0  0
 16 46  1  1  0  0  0
 17 47  1  0  0  0  0
 18 19  1  0  0  0  0
 18 23  2  0  0  0  0
 19 20  2  0  0  0  0
 19 48  1  0  0  0  0
 20 21  1  0  0  0  0
 21 22  2  0  0  0  0
 21 27  1  0  0  0  0
 22 23  1  0  0  0  0
 22 25  1  0  0  0  0
 23 24  1  0  0  0  0
 24 49  1  0  0  0  0
 24 50  1  0  0  0  0
 25 26  2  0  0  0  0
 26 27  1  0  0  0  0
 26 51  1  0  0  0  0
M  END
$$$$
