REMARK  7 active torsions:
REMARK  status: ('A' for Active; 'I' for Inactive)
REMARK    1  A    between atoms: CA_2  and  C_3 
REMARK    2  A    between atoms: CA_2  and  C_5 
REMARK    3  A    between atoms: C_5  and  C_6 
REMARK    4  A    between atoms: C_6  and  S_7 
REMARK    5  A    between atoms: S_7  and  C_9 
REMARK    6  A    between atoms: C_10  and  C_9 
REMARK    7  A    between atoms: C_16  and  N_27 
ROOT
ATOM      1  C   UNL d   1      -4.195 -13.387  19.175  0.00  0.00     0.160 C 
ATOM      2  O   UNL d   1      -3.179 -12.705  19.929  0.00  0.00    -0.333 OA
ATOM      3  C   UNL d   1      -5.469 -12.877  19.829  0.00  0.00     0.215 C 
ATOM      4  O   UNL d   1      -6.680 -13.623  19.593  0.00  0.00    -0.218 OA
ATOM      5  C   UNL d   1      -5.043 -12.847  21.276  0.00  0.00     0.234 C 
ATOM      6  O   UNL d   1      -4.943 -14.174  21.784  0.00  0.00    -0.216 OA
ATOM      7  C   UNL d   1      -3.668 -12.253  21.194  0.00  0.00     0.241 C 
ENDROOT
BRANCH   1   8
ATOM      8  C   UNL d   1      -4.122 -13.102  17.660  0.00  0.00     0.081 C 
BRANCH   8   9
ATOM      9  S   UNL d   1      -2.577 -13.271  17.002  0.00  0.00    -0.176 SA
ATOM     10  C   UNL d   1      -2.653 -13.963  15.494  0.00  0.00     0.059 C 
BRANCH   9  11
ATOM     11  C   UNL d   1      -1.842 -11.767  16.888  0.00  0.00     0.051 C 
BRANCH  11  12
ATOM     12  C   UNL d   1      -2.802 -10.566  16.738  0.00  0.00     0.061 C 
BRANCH  12  13
ATOM     13  CA  UNL d   1      -2.034  -9.249  16.597  0.00  0.00     0.388 C 
ATOM     14  N   UNL d   1      -1.534  -8.813  17.887  0.00  0.00     0.628 N 
BRANCH  13  15
ATOM     15  C   UNL d   1      -2.939  -8.172  16.083  0.00  0.00     0.224 C 
ATOM     16  O   UNL d   1      -4.166  -8.247  16.309  0.00  0.00    -0.646 OA
ATOM     17  OXT UNL d   1      -2.447  -7.199  15.463  0.00  0.00    -0.646 OA
ENDBRANCH  13  15
ENDBRANCH  12  13
ENDBRANCH  11  12
ENDBRANCH   9  11
ENDBRANCH   8   9
ENDBRANCH   1   8
BRANCH   7  18
ATOM     18  N   UNL d   1      -3.691 -10.764  21.326  0.00  0.00    -0.270 N 
ATOM     19  C   UNL d   1      -4.439  -9.851  20.715  0.00  0.00     0.170 A 
ATOM     20  N   UNL d   1      -5.400  -9.882  19.785  0.00  0.00    -0.205 NA
ATOM     21  C   UNL d   1      -4.047  -8.555  21.248  0.00  0.00     0.155 A 
ATOM     22  C   UNL d   1      -5.997  -8.762  19.344  0.00  0.00     0.202 A 
ATOM     23  N   UNL d   1      -5.659  -7.527  19.788  0.00  0.00    -0.202 NA
ATOM     24  C   UNL d   1      -4.698  -7.324  20.743  0.00  0.00     0.206 A 
ATOM     25  N   UNL d   1      -4.365  -6.068  21.206  0.00  0.00    -0.125 N 
ATOM     26  N   UNL d   1      -3.113  -8.803  22.138  0.00  0.00    -0.219 NA
ATOM     27  C   UNL d   1      -2.891 -10.124  22.178  0.00  0.00     0.182 A 
ENDBRANCH   7  18
TORSDOF 7
