@<TRIPOS>MOLECULE
ligand.pdb
 27 29 0 0 0
SMALL
GASTEIGER

@<TRIPOS>ATOM
      1 N          -1.5340   -8.8130   17.8870 N.3     1  UNL1       -0.1208
      2 CA         -2.0340   -9.2490   16.5970 C.3     1  UNL1        0.1952
      3 C          -2.9390   -8.1720   16.0830 C.2     1  UNL1        0.3819
      4 O          -4.1660   -8.2470   16.3090 O.co2   1  UNL1       -0.2441
      5 C          -2.8020  -10.5660   16.7380 C.3     1  UNL1        0.0414
      6 C          -1.8420  -11.7670   16.8880 C.3     1  UNL1        0.0503
      7 S          -2.5770  -13.2710   17.0020 S.3     1  UNL1       -0.1761
      8 C          -2.6530  -13.9630   15.4940 C.3     1  UNL1        0.0590
      9 C          -4.1220  -13.1020   17.6600 C.3     1  UNL1        0.0805
     10 C          -4.1950  -13.3870   19.1750 C.3     1  UNL1        0.1602
     11 O          -3.1790  -12.7050   19.9290 O.3     1  UNL1       -0.3324
     12 C          -5.4690  -12.8770   19.8290 C.3     1  UNL1        0.2144
     13 O          -6.6800  -13.6230   19.5930 O.3     1  UNL1       -0.2176
     14 C          -5.0430  -12.8470   21.2760 C.3     1  UNL1        0.2336
     15 O          -4.9430  -14.1740   21.7840 O.3     1  UNL1       -0.2155
     16 C          -3.6680  -12.2530   21.1940 C.3     1  UNL1        0.2409
     17 OXT        -2.4470   -7.1990   15.4630 O.co2   1  UNL1       -0.2441
     18 N          -5.6590   -7.5270   19.7880 N.ar    1  UNL1       -0.2040
     19 C          -5.9970   -8.7620   19.3440 C.ar    1  UNL1        0.2016
     20 N          -5.4000   -9.8820   19.7850 N.ar    1  UNL1       -0.2048
     21 C          -4.4390   -9.8510   20.7150 C.ar    1  UNL1        0.1692
     22 C          -4.0470   -8.5550   21.2480 C.ar    1  UNL1        0.1518
     23 C          -4.6980   -7.3240   20.7430 C.ar    1  UNL1        0.1919
     24 N          -4.3650   -6.0680   21.2060 N.pl3   1  UNL1       -0.1054
     25 N          -3.1130   -8.8030   22.1380 N.ar    1  UNL1       -0.2193
     26 C          -2.8910  -10.1240   22.1780 C.ar    1  UNL1        0.1816
     27 N          -3.6910  -10.7640   21.3260 N.ar    1  UNL1       -0.2693
@<TRIPOS>BOND
     1     2     3    1
     2     2     5    1
     3     2     1    1
     4     3     4   ar
     5     3    17   ar
     6     5     6    1
     7     6     7    1
     8     7     8    1
     9     7     9    1
    10    10    11    1
    11    10    12    1
    12    10     9    1
    13    11    16    1
    14    12    13    1
    15    12    14    1
    16    14    15    1
    17    14    16    1
    18    16    27    1
    19    18    19   ar
    20    18    23   ar
    21    19    20   ar
    22    20    21   ar
    23    21    22   ar
    24    21    27   ar
    25    22    23   ar
    26    22    25   ar
    27    23    24    1
    28    25    26   ar
    29    26    27   ar
