4JF2_PRF_A_101
 OpenBabel10091713583D
Coordinates from PDB:4JF2:A:101 Model:1 without hydrogens
 22 23  0  0  0  0  0  0  0  0999 V2000
   -3.6320   31.5300   54.8980 N   0  0  0  0  0  0  0  0  0  0  0  0
   -2.6420   30.5340   54.9070 C   0  0  0  0  0  0  0  0  0  0  0  0
   -2.9060   29.2890   54.3830 N   0  0  0  0  0  0  0  0  0  0  0  0
   -4.1650   28.9700   53.8120 C   0  0  0  0  0  0  0  0  0  0  0  0
   -5.1930   29.9740   53.7670 C   0  0  0  0  0  0  0  0  0  0  0  0
   -4.8790   31.2720   54.3190 C   0  0  0  0  0  0  0  0  0  0  0  0
   -5.8670   32.2160   54.2800 O   0  0  0  0  0  0  0  0  0  0  0  0
   -6.3650   29.4000   53.1470 C   0  0  0  0  0  0  0  0  0  0  0  0
   -7.6870   30.0850   52.8610 C   0  0  0  0  0  0  0  0  0  0  0  0
   -8.5140   30.2660   54.0520 N   0  0  0  0  0  0  0  0  0  0  0  0
   -5.9940   28.0930   52.8270 C   0  0  0  0  0  0  0  0  0  0  0  0
   -4.6950   27.8450   53.2320 N   0  0  0  0  0  0  0  0  0  0  0  0
   -1.3480   30.8230   55.4810 N   0  0  0  0  0  0  0  0  0  0  0  0
   -3.4484   32.4100   55.2993 H   0  0  0  0  0  0  0  0  0  0  0  0
   -8.2315   29.4916   52.1565 H   0  0  0  0  0  0  0  0  0  0  0  0
   -7.4630   31.0594   52.4798 H   0  0  0  0  0  0  0  0  0  0  0  0
   -8.7485   29.3544   54.4449 H   0  0  0  0  0  0  0  0  0  0  0  0
   -9.3710   30.7580   53.7993 H   0  0  0  0  0  0  0  0  0  0  0  0
   -6.6037   27.4076   52.3543 H   0  0  0  0  0  0  0  0  0  0  0  0
   -4.2213   26.9891   53.1208 H   0  0  0  0  0  0  0  0  0  0  0  0
   -1.1634   31.7149   55.8547 H   0  0  0  0  0  0  0  0  0  0  0  0
   -0.6509   30.1280   55.4984 H   0  0  0  0  0  0  0  0  0  0  0  0
  1  2  1  0  0  0  0
  1  6  1  0  0  0  0
  1 14  1  0  0  0  0
  2  3  2  0  0  0  0
  2 13  1  0  0  0  0
  3  4  1  0  0  0  0
  4  5  2  0  0  0  0
  4 12  1  0  0  0  0
  5  6  1  0  0  0  0
  5  8  1  0  0  0  0
  6  7  2  0  0  0  0
  8  9  1  0  0  0  0
  8 11  2  0  0  0  0
  9 10  1  0  0  0  0
  9 15  1  0  0  0  0
  9 16  1  0  0  0  0
 10 17  1  0  0  0  0
 10 18  1  0  0  0  0
 11 12  1  0  0  0  0
 11 19  1  0  0  0  0
 12 20  1  0  0  0  0
 13 21  1  0  0  0  0
 13 22  1  0  0  0  0
M  END
$$$$
