4JF2_PRF_A_101
 OpenBabel10091713583D
Coordinates from PDB:4JF2:A:101 Model:1 without hydrogens
 13 14  0  0  0  0  0  0  0  0999 V2000
   -3.6320   31.5300   54.8980 N   0  0  0  0  0  0  0  0  0  0  0  0
   -2.6420   30.5340   54.9070 C   0  0  0  0  0  0  0  0  0  0  0  0
   -2.9060   29.2890   54.3830 N   0  0  0  0  0  0  0  0  0  0  0  0
   -4.1650   28.9700   53.8120 C   0  0  0  0  0  0  0  0  0  0  0  0
   -5.1930   29.9740   53.7670 C   0  0  0  0  0  0  0  0  0  0  0  0
   -4.8790   31.2720   54.3190 C   0  0  0  0  0  0  0  0  0  0  0  0
   -5.8670   32.2160   54.2800 O   0  0  0  0  0  0  0  0  0  0  0  0
   -6.3650   29.4000   53.1470 C   0  0  0  0  0  0  0  0  0  0  0  0
   -7.6870   30.0850   52.8610 C   0  0  0  0  0  0  0  0  0  0  0  0
   -8.5140   30.2660   54.0520 N   0  0  0  0  0  0  0  0  0  0  0  0
   -5.9940   28.0930   52.8270 C   0  0  0  0  0  0  0  0  0  0  0  0
   -4.6950   27.8450   53.2320 N   0  0  0  0  0  0  0  0  0  0  0  0
   -1.3480   30.8230   55.4810 N   0  0  0  0  0  0  0  0  0  0  0  0
  1  2  1  0  0  0  0
  1  6  1  0  0  0  0
  2  3  2  0  0  0  0
  2 13  1  0  0  0  0
  3  4  1  0  0  0  0
  4  5  2  0  0  0  0
  4 12  1  0  0  0  0
  5  6  1  0  0  0  0
  5  8  1  0  0  0  0
  6  7  2  0  0  0  0
  8  9  1  0  0  0  0
  8 11  2  0  0  0  0
  9 10  1  0  0  0  0
 11 12  1  0  0  0  0
A    1
N1
A    2
C2
A    3
N3
A    4
C4
A    5
C5
A    6
C6
A    7
O6
A    8
C7
A    9
C10
A   10
N11
A   11
C8
A   12
N9
A   13
N2
M  END
>  <InstanceId>
4JF2_PRF_A_101

>  <ChemCompId>
PRF

>  <PdbId>
4JF2

>  <ChainId>
A

>  <ResidueNumber>
101

>  <InsertionCode>


>  <Model>
1

>  <AltIds>


>  <MissingHeavyAtoms>
0

>  <ObservedFormula>
C7 N5 O

>  <Name>
7-DEAZA-7-AMINOMETHYL-GUANINE

>  <SystematicName>
2-amino-5-(aminomethyl)-3,7-dihydropyrrolo[3,2-e]pyrimidin-4-one

>  <Synonyms>


>  <Type>
NON-POLYMER

>  <Formula>
C7 H9 N5 O

>  <MolecularWeight>
179.179

>  <ModifiedDate>
2011-06-04

>  <Parent>


>  <OneLetterCode>


>  <SubcomponentList>


>  <AmbiguousFlag>
N

>  <InChI>
InChI=1S/C7H9N5O/c8-1-3-2-10-5-4(3)6(13)12-7(9)11-5/h2H,1,8H2,(H4,9,10,11,12,13)

>  <InChIKey>
MEYMBLGOKYDGLZ-UHFFFAOYSA-N

>  <SMILES>
c1c(c2c([nH]1)N=C(NC2=O)N)CN

$$$$
