@<TRIPOS>MOLECULE
4JF2_PRF_A_101
 13 14 0 0 0
SMALL
GASTEIGER
****
Coordinates from PDB:4JF2:A:101 Model:1 without hydrogens
@<TRIPOS>ATOM
      1 N          -3.6320   31.5300   54.8980 N.ar    1  UNL1       -0.1723
      2 C          -2.6420   30.5340   54.9070 C.ar    1  UNL1        0.2606
      3 N          -2.9060   29.2890   54.3830 N.ar    1  UNL1       -0.1918
      4 C          -4.1650   28.9700   53.8120 C.ar    1  UNL1        0.1697
      5 C          -5.1930   29.9740   53.7670 C.ar    1  UNL1        0.0927
      6 C          -4.8790   31.2720   54.3190 C.ar    1  UNL1        0.2843
      7 O          -5.8670   32.2160   54.2800 O.2     1  UNL1       -0.2650
      8 C          -6.3650   29.4000   53.1470 C.ar    1  UNL1        0.0236
      9 C          -7.6870   30.0850   52.8610 C.3     1  UNL1        0.1374
     10 N          -8.5140   30.2660   54.0520 N.3     1  UNL1       -0.1262
     11 C          -5.9940   28.0930   52.8270 C.ar    1  UNL1        0.0980
     12 N          -4.6950   27.8450   53.2320 N.ar    1  UNL1       -0.2251
     13 N          -1.3480   30.8230   55.4810 N.pl3   1  UNL1       -0.0859
@<TRIPOS>BOND
     1     1     2   ar
     2     1     6   ar
     3     2     3   ar
     4     2    13    1
     5     3     4   ar
     6     4     5   ar
     7     4    12   ar
     8     5     6   ar
     9     5     8   ar
    10     6     7    2
    11     8     9    1
    12     8    11   ar
    13     9    10    1
    14    11    12   ar
