2W89_GOL_B_1973
 OpenBabel10091713573D
Coordinates from PDB:2W89:B:1973 Model:1 without hydrogens
 14 13  0  0  0  0  0  0  0  0999 V2000
    3.8980   -4.7640  -12.4930 C   0  0  0  0  0  0  0  0  0  0  0  0
    4.7020   -3.7620  -13.1250 O   0  0  0  0  0  0  0  0  0  0  0  0
    3.9070   -6.1010  -13.2500 C   0  0  0  0  0  0  0  0  0  0  0  0
    5.0920   -6.2290  -14.0430 O   0  0  0  0  0  0  0  0  0  0  0  0
    3.8040   -7.2800  -12.2750 C   0  0  0  0  0  0  0  0  0  0  0  0
    2.5100   -7.4640  -11.7700 O   0  0  0  0  0  0  0  0  0  0  0  0
    2.8901   -4.4090  -12.4384 H   0  0  0  0  0  0  0  0  0  0  0  0
    4.3100   -4.9415  -11.5216 H   0  0  0  0  0  0  0  0  0  0  0  0
    4.3525   -3.5784  -14.0110 H   0  0  0  0  0  0  0  0  0  0  0  0
    3.0557   -6.1144  -13.8981 H   0  0  0  0  0  0  0  0  0  0  0  0
    5.8707   -6.2180  -13.4648 H   0  0  0  0  0  0  0  0  0  0  0  0
    4.4677   -7.1025  -11.4547 H   0  0  0  0  0  0  0  0  0  0  0  0
    4.0642   -8.1655  -12.8164 H   0  0  0  0  0  0  0  0  0  0  0  0
    2.2423   -6.6760  -11.2717 H   0  0  0  0  0  0  0  0  0  0  0  0
  1  2  1  0  0  0  0
  1  3  1  0  0  0  0
  1  7  1  0  0  0  0
  1  8  1  0  0  0  0
  2  9  1  0  0  0  0
  3  4  1  0  0  0  0
  3  5  1  0  0  0  0
  3 10  1  0  0  0  0
  4 11  1  0  0  0  0
  5  6  1  0  0  0  0
  5 12  1  0  0  0  0
  5 13  1  0  0  0  0
  6 14  1  0  0  0  0
A    1
C1
A    2
O1
A    3
C2
A    4
O2
A    5
C3
A    6
O3
M  END
>  <InstanceId>
2W89_GOL_B_1973

>  <ChemCompId>
GOL

>  <PdbId>
2W89

>  <ChainId>
B

>  <ResidueNumber>
1973

>  <InsertionCode>


>  <Model>
1

>  <AltIds>


>  <MissingHeavyAtoms>
0

>  <ObservedFormula>
C3 O3

>  <Name>
GLYCEROL

>  <SystematicName>
propane-1,2,3-triol

>  <Synonyms>
GLYCERIN; PROPANE-1,2,3-TRIOL

>  <Type>
NON-POLYMER

>  <Formula>
C3 H8 O3

>  <MolecularWeight>
92.094

>  <ModifiedDate>
2011-06-04

>  <Parent>


>  <OneLetterCode>


>  <SubcomponentList>


>  <AmbiguousFlag>
N

>  <InChI>
InChI=1S/C3H8O3/c4-1-3(6)2-5/h3-6H,1-2H2

>  <InChIKey>
PEDCQBHIVMGVHV-UHFFFAOYSA-N

>  <SMILES>
C(C(CO)O)O

$$$$
