2W89_GOL_B_1973
 OpenBabel10091713573D
Coordinates from PDB:2W89:B:1973 Model:1 without hydrogens
  6  5  0  0  0  0  0  0  0  0999 V2000
    3.8980   -4.7640  -12.4930 C   0  0  0  0  0  0  0  0  0  0  0  0
    4.7020   -3.7620  -13.1250 O   0  0  0  0  0  0  0  0  0  0  0  0
    3.9070   -6.1010  -13.2500 C   0  0  0  0  0  0  0  0  0  0  0  0
    5.0920   -6.2290  -14.0430 O   0  0  0  0  0  0  0  0  0  0  0  0
    3.8040   -7.2800  -12.2750 C   0  0  0  0  0  0  0  0  0  0  0  0
    2.5100   -7.4640  -11.7700 O   0  0  0  0  0  0  0  0  0  0  0  0
  1  2  1  0  0  0  0
  1  3  1  0  0  0  0
  3  4  1  0  0  0  0
  3  5  1  0  0  0  0
  5  6  1  0  0  0  0
A    1
C1
A    2
O1
A    3
C2
A    4
O2
A    5
C3
A    6
O3
M  END
>  <InstanceId>
2W89_GOL_B_1973

>  <ChemCompId>
GOL

>  <PdbId>
2W89

>  <ChainId>
B

>  <ResidueNumber>
1973

>  <InsertionCode>


>  <Model>
1

>  <AltIds>


>  <MissingHeavyAtoms>
0

>  <ObservedFormula>
C3 O3

>  <Name>
GLYCEROL

>  <SystematicName>
propane-1,2,3-triol

>  <Synonyms>
GLYCERIN; PROPANE-1,2,3-TRIOL

>  <Type>
NON-POLYMER

>  <Formula>
C3 H8 O3

>  <MolecularWeight>
92.094

>  <ModifiedDate>
2011-06-04

>  <Parent>


>  <OneLetterCode>


>  <SubcomponentList>


>  <AmbiguousFlag>
N

>  <InChI>
InChI=1S/C3H8O3/c4-1-3(6)2-5/h3-6H,1-2H2

>  <InChIKey>
PEDCQBHIVMGVHV-UHFFFAOYSA-N

>  <SMILES>
C(C(CO)O)O

$$$$
