REMARK  2 active torsions:
REMARK  status: ('A' for Active; 'I' for Inactive)
REMARK    1  A    between atoms: C_1  and  C_3 
REMARK    2  A    between atoms: C_3  and  C_5 
ROOT
ATOM      1  C   UNL d   1       3.907  -6.101 -13.250  0.00  0.00     0.218 C 
ATOM      2  O   UNL d   1       5.092  -6.229 -14.043  0.00  0.00    -0.218 OA
ENDROOT
BRANCH   1   3
ATOM      3  C   UNL d   1       3.898  -4.764 -12.493  0.00  0.00     0.218 C 
ATOM      4  O   UNL d   1       4.702  -3.762 -13.125  0.00  0.00    -0.218 OA
ENDBRANCH   1   3
BRANCH   1   5
ATOM      5  C   UNL d   1       3.804  -7.280 -12.275  0.00  0.00     0.218 C 
ATOM      6  O   UNL d   1       2.510  -7.464 -11.770  0.00  0.00    -0.218 OA
ENDBRANCH   1   5
TORSDOF 2
