@<TRIPOS>MOLECULE
2W89_GOL_B_1973
 6 5 0 0 0
SMALL
GASTEIGER
****
Coordinates from PDB:2W89:B:1973 Model:1 without hydrogens
@<TRIPOS>ATOM
      1 C           3.8980   -4.7640  -12.4930 C.3     1  UNL1        0.2175
      2 O           4.7020   -3.7620  -13.1250 O.3     1  UNL1       -0.2175
      3 C           3.9070   -6.1010  -13.2500 C.3     1  UNL1        0.2175
      4 O           5.0920   -6.2290  -14.0430 O.3     1  UNL1       -0.2175
      5 C           3.8040   -7.2800  -12.2750 C.3     1  UNL1        0.2175
      6 O           2.5100   -7.4640  -11.7700 O.3     1  UNL1       -0.2175
@<TRIPOS>BOND
     1     1     2    1
     2     1     3    1
     3     3     4    1
     4     3     5    1
     5     5     6    1
