REMARK  9 active torsions:
REMARK  status: ('A' for Active; 'I' for Inactive)
REMARK    1  A    between atoms: C_1  and  O_2 
REMARK    2  A    between atoms: C_17  and  O_2 
REMARK    3  A    between atoms: C_9  and  C_11 
REMARK    4  A    between atoms: C_15  and  O_16 
REMARK    5  A    between atoms: C_21  and  O_16 
REMARK    6  A    between atoms: C_23  and  O_31 
REMARK    7  A    between atoms: C_24  and  C_26 
REMARK    8  A    between atoms: C_30  and  O_31 
REMARK    9  A    between atoms: C_32  and  C_34 
ROOT
ATOM      1  C   UNL d   1      -1.608  36.250  15.508  0.00  0.00     0.337 C 
ATOM      2  N   UNL d   1      -1.642  37.348  14.522  0.00  0.00     0.619 N 
ATOM      3  C   UNL d   1      -1.412  34.895  14.787  0.00  0.00     0.218 C 
ATOM      4  C   UNL d   1      -1.385  33.728  15.846  0.00  0.00     0.180 C 
ATOM      5  C   UNL d   1      -0.191  33.936  16.847  0.00  0.00     0.184 C 
ATOM      6  C   UNL d   1      -0.320  35.312  17.579  0.00  0.00     0.333 C 
ATOM      7  N   UNL d   1       0.811  35.486  18.505  0.00  0.00     0.619 N 
ATOM      8  C   UNL d   1      -0.363  36.477  16.516  0.00  0.00     0.084 C 
ATOM      9  O   UNL d   1      -2.497  34.706  13.918  0.00  0.00    -0.218 OA
ENDROOT
BRANCH   4  10
ATOM     10  O   UNL d   1      -1.174  32.432  15.197  0.00  0.00    -0.326 OA
BRANCH  10  11
ATOM     11  C   UNL d   1      -2.165  31.660  14.615  0.00  0.00     0.270 C 
ATOM     12  C   UNL d   1      -1.616  30.816  13.429  0.00  0.00     0.238 C 
ATOM     13  O   UNL d   1      -1.561  31.514  12.218  0.00  0.00    -0.215 OA
ATOM     14  C   UNL d   1      -2.527  29.600  13.530  0.00  0.00     0.183 C 
ATOM     15  C   UNL d   1      -2.775  29.349  15.032  0.00  0.00     0.181 C 
ATOM     16  O   UNL d   1      -2.811  30.698  15.512  0.00  0.00    -0.326 OA
BRANCH  14  17
ATOM     17  O   UNL d   1      -3.786  29.904  12.794  0.00  0.00    -0.326 OA
BRANCH  17  18
ATOM     18  C   UNL d   1      -4.577  28.821  12.345  0.00  0.00     0.277 C 
ATOM     19  C   UNL d   1      -5.375  29.175  11.001  0.00  0.00     0.390 C 
ATOM     20  C   UNL d   1      -6.274  27.888  10.601  0.00  0.00     0.227 C 
ATOM     21  N   UNL d   1      -6.197  30.399  11.223  0.00  0.00     0.624 N 
ATOM     22  C   UNL d   1      -7.321  27.569  11.789  0.00  0.00     0.214 C 
ATOM     23  O   UNL d   1      -5.366  26.708  10.386  0.00  0.00    -0.218 OA
ATOM     24  C   UNL d   1      -6.467  27.230  13.135  0.00  0.00     0.190 C 
ATOM     25  O   UNL d   1      -8.185  28.706  11.964  0.00  0.00    -0.218 OA
ATOM     26  O   UNL d   1      -5.563  28.389  13.460  0.00  0.00    -0.327 OA
BRANCH  24  27
ATOM     27  C   UNL d   1      -7.393  26.929  14.361  0.00  0.00     0.370 C 
ATOM     28  N   UNL d   1      -7.699  28.126  15.212  0.00  0.00     0.621 N 
ENDBRANCH  24  27
ENDBRANCH  17  18
ENDBRANCH  14  17
BRANCH  15  29
ATOM     29  C   UNL d   1      -1.662  28.509  15.763  0.00  0.00     0.214 C 
ATOM     30  O   UNL d   1      -2.215  27.975  17.003  0.00  0.00    -0.218 OA
ENDBRANCH  15  29
ENDBRANCH  10  11
ENDBRANCH   4  10
BRANCH   5  31
ATOM     31  O   UNL d   1      -0.175  32.906  17.851  0.00  0.00    -0.327 OA
BRANCH  31  32
ATOM     32  C   UNL d   1       0.373  31.609  17.652  0.00  0.00     0.276 C 
ATOM     33  O   UNL d   1       1.850  31.601  17.920  0.00  0.00    -0.327 OA
ATOM     34  C   UNL d   1       2.270  31.925  19.270  0.00  0.00     0.190 C 
ATOM     35  C   UNL d   1       1.583  30.930  20.263  0.00  0.00     0.214 C 
ATOM     36  C   UNL d   1       0.011  31.001  20.117  0.00  0.00     0.227 C 
ATOM     37  O   UNL d   1       1.983  31.238  21.583  0.00  0.00    -0.218 OA
ATOM     38  C   UNL d   1      -0.371  30.639  18.628  0.00  0.00     0.390 C 
ATOM     39  O   UNL d   1      -0.641  30.135  20.989  0.00  0.00    -0.218 OA
ATOM     40  N   UNL d   1      -1.825  30.663  18.412  0.00  0.00     0.624 N 
BRANCH  34  41
ATOM     41  C   UNL d   1       3.825  31.872  19.358  0.00  0.00     0.370 C 
ATOM     42  N   UNL d   1       4.446  32.785  18.461  0.00  0.00     0.621 N 
ENDBRANCH  34  41
ENDBRANCH  31  32
ENDBRANCH   5  31
TORSDOF 9
