2ET4_NMY_A_50
 OpenBabel10091713573D
Coordinates from PDB:2ET4:A:50 Model:1 without hydrogens
 42 45  0  0  0  0  0  0  0  0999 V2000
    0.3730   31.6090   17.6520 C   0  0  2  0  0  0  0  0  0  0  0  0
   -0.1750   32.9060   17.8510 O   0  0  0  0  0  0  0  0  0  0  0  0
   -0.3710   30.6390   18.6280 C   0  0  2  0  0  0  0  0  0  0  0  0
   -1.8250   30.6630   18.4120 N   0  0  0  0  0  0  0  0  0  0  0  0
    0.0110   31.0010   20.1170 C   0  0  1  0  0  0  0  0  0  0  0  0
   -0.6410   30.1350   20.9890 O   0  0  0  0  0  0  0  0  0  0  0  0
    1.5830   30.9300   20.2630 C   0  0  2  0  0  0  0  0  0  0  0  0
    1.9830   31.2380   21.5830 O   0  0  0  0  0  0  0  0  0  0  0  0
    2.2700   31.9250   19.2700 C   0  0  2  0  0  0  0  0  0  0  0  0
    1.8500   31.6010   17.9200 O   0  0  0  0  0  0  0  0  0  0  0  0
    3.8250   31.8720   19.3580 C   0  0  0  0  0  0  0  0  0  0  0  0
   -1.6080   36.2500   15.5080 C   0  0  1  0  0  0  0  0  0  0  0  0
   -1.6420   37.3480   14.5220 N   0  0  0  0  0  0  0  0  0  0  0  0
   -1.4120   34.8950   14.7870 C   0  0  1  0  0  0  0  0  0  0  0  0
   -1.3850   33.7280   15.8460 C   0  0  1  0  0  0  0  0  0  0  0  0
   -1.1740   32.4320   15.1970 O   0  0  0  0  0  0  0  0  0  0  0  0
   -0.1910   33.9360   16.8470 C   0  0  1  0  0  0  0  0  0  0  0  0
   -0.3200   35.3120   17.5790 C   0  0  1  0  0  0  0  0  0  0  0  0
    0.8110   35.4860   18.5050 N   0  0  0  0  0  0  0  0  0  0  0  0
   -0.3630   36.4770   16.5160 C   0  0  0  0  0  0  0  0  0  0  0  0
   -2.1650   31.6600   14.6150 C   0  0  1  0  0  0  0  0  0  0  0  0
   -1.6160   30.8160   13.4290 C   0  0  1  0  0  0  0  0  0  0  0  0
   -2.5270   29.6000   13.5300 C   0  0  1  0  0  0  0  0  0  0  0  0
   -2.7750   29.3490   15.0320 C   0  0  2  0  0  0  0  0  0  0  0  0
   -2.8110   30.6980   15.5120 O   0  0  0  0  0  0  0  0  0  0  0  0
   -1.6620   28.5090   15.7630 C   0  0  0  0  0  0  0  0  0  0  0  0
   -7.3210   27.5690   11.7890 C   0  0  1  0  0  0  0  0  0  0  0  0
   -6.2740   27.8880   10.6010 C   0  0  1  0  0  0  0  0  0  0  0  0
   -5.3750   29.1750   11.0010 C   0  0  2  0  0  0  0  0  0  0  0  0
   -4.5770   28.8210   12.3450 C   0  0  1  0  0  0  0  0  0  0  0  0
   -3.7860   29.9040   12.7940 O   0  0  0  0  0  0  0  0  0  0  0  0
   -6.4670   27.2300   13.1350 C   0  0  1  0  0  0  0  0  0  0  0  0
   -5.5630   28.3890   13.4600 O   0  0  0  0  0  0  0  0  0  0  0  0
   -7.3930   26.9290   14.3610 C   0  0  0  0  0  0  0  0  0  0  0  0
    4.4460   32.7850   18.4610 N   0  0  0  0  0  0  0  0  0  0  0  0
   -1.5610   31.5140   12.2180 O   0  0  0  0  0  0  0  0  0  0  0  0
   -5.3660   26.7080   10.3860 O   0  0  0  0  0  0  0  0  0  0  0  0
   -8.1850   28.7060   11.9640 O   0  0  0  0  0  0  0  0  0  0  0  0
   -2.2150   27.9750   17.0030 O   0  0  0  0  0  0  0  0  0  0  0  0
   -2.4970   34.7060   13.9180 O   0  0  0  0  0  0  0  0  0  0  0  0
   -7.6990   28.1260   15.2120 N   0  0  0  0  0  0  0  0  0  0  0  0
   -6.1970   30.3990   11.2230 N   0  0  0  0  0  0  0  0  0  0  0  0
  1 10  1  0  0  0  0
  1  2  1  1  0  0  0
  1  3  1  0  0  0  0
  3  4  1  1  0  0  0
  3  5  1  0  0  0  0
  5  7  1  0  0  0  0
  5  6  1  1  0  0  0
  7  9  1  0  0  0  0
  7  8  1  1  0  0  0
  9 10  1  0  0  0  0
  9 11  1  6  0  0  0
 11 35  1  0  0  0  0
 12 13  1  6  0  0  0
 12 14  1  0  0  0  0
 12 20  1  0  0  0  0
 14 40  1  6  0  0  0
 14 15  1  0  0  0  0
 15 16  1  6  0  0  0
 15 17  1  0  0  0  0
 17  2  1  1  0  0  0
 17 18  1  0  0  0  0
 18 20  1  0  0  0  0
 18 19  1  1  0  0  0
 21 16  1  1  0  0  0
 21 22  1  0  0  0  0
 21 25  1  0  0  0  0
 22 36  1  6  0  0  0
 22 23  1  0  0  0  0
 23 31  1  6  0  0  0
 23 24  1  0  0  0  0
 24 25  1  0  0  0  0
 24 26  1  1  0  0  0
 26 39  1  0  0  0  0
 27 28  1  0  0  0  0
 27 32  1  0  0  0  0
 27 38  1  1  0  0  0
 28 29  1  0  0  0  0
 28 37  1  1  0  0  0
 29 42  1  1  0  0  0
 29 30  1  0  0  0  0
 30 33  1  0  0  0  0
 30 31  1  1  0  0  0
 32 33  1  0  0  0  0
 32 34  1  1  0  0  0
 34 41  1  0  0  0  0
A    1
C1
A    2
O1
A    3
C2
A    4
N2
A    5
C3
A    6
O3
A    7
C4
A    8
O4
A    9
C5
A   10
O5
A   11
C6
A   12
C7
A   13
N7
A   14
C12
A   15
C11
A   16
O11
A   17
C10
A   18
C9
A   19
N9
A   20
C8
A   21
C13
A   22
C14
A   23
C15
A   24
C16
A   25
O16
A   26
C17
A   27
C21
A   28
C20
A   29
C19
A   30
C18
A   31
O18
A   32
C22
A   33
O22
A   34
C23
A   35
N6
A   36
O14
A   37
O20
A   38
O21
A   39
O17
A   40
O12
A   41
N19
A   42
N23
M  END
>  <InstanceId>
2ET4_NMY_A_50

>  <ChemCompId>
NMY

>  <PdbId>
2ET4

>  <ChainId>
A

>  <ResidueNumber>
50

>  <InsertionCode>


>  <Model>
1

>  <AltIds>


>  <MissingHeavyAtoms>
0

>  <ObservedFormula>
C23 N6 O13

>  <Name>
NEOMYCIN

>  <SystematicName>
(2R,3S,4R,5R,6R)-5-amino-2-(aminomethyl)-6-[(1R,2R,3S,4R,6S)-4,6-diamino-2-[(2S,3R,4S,5R)-4-[(2R,3R,4R,5S,6S)-3-amino-6-(aminomethyl)-4,5-dihydroxy-oxan-2-yl]oxy-3-hydroxy-5-(hydroxymethyl)oxolan-2-yl]oxy-3-hydroxy-cyclohexyl]oxy-oxane-3,4-diol

>  <Synonyms>
MYCIFRADIN; NEOMAS; PIMAVECORT; VONAMYCIN

>  <Type>
NON-POLYMER

>  <Formula>
C23 H46 N6 O13

>  <MolecularWeight>
614.644

>  <ModifiedDate>
2011-06-04

>  <Parent>


>  <OneLetterCode>


>  <SubcomponentList>


>  <AmbiguousFlag>


>  <InChI>
InChI=1S/C23H46N6O13/c24-2-7-13(32)15(34)10(28)21(37-7)40-18-6(27)1-5(26)12(31)20(18)42-23-17(36)19(9(4-30)39-23)41-22-11(29)16(35)14(33)8(3-25)38-22/h5-23,30-36H,1-4,24-29H2/t5-,6+,7-,8+,9-,10-,11-,12+,13-,14-,15-,16-,17-,18-,19-,20-,21-,22-,23+/m1/s1

>  <InChIKey>
PGBHMTALBVVCIT-VCIWKGPPSA-N

>  <SMILES>
C1[C@H]([C@@H]([C@H]([C@@H]([C@H]1N)O[C@@H]2[C@@H]([C@H]([C@@H]([C@H](O2)CN)O)O)N)O[C@H]3[C@@H]([C@@H]([C@H](O3)CO)O[C@@H]4[C@@H]([C@H]([C@@H]([C@@H](O4)CN)O)O)N)O)O)N

$$$$
