@<TRIPOS>MOLECULE
2ET4_NMY_A_50
 42 45 0 0 0
SMALL
GASTEIGER
****
Coordinates from PDB:2ET4:A:50 Model:1 without hydrogens
@<TRIPOS>ATOM
      1 C           0.3730   31.6090   17.6520 C.3     1  UNL1        0.2561
      2 O          -0.1750   32.9060   17.8510 O.3     1  UNL1       -0.3278
      3 C          -0.3710   30.6390   18.6280 C.3     1  UNL1        0.1807
      4 N          -1.8250   30.6630   18.4120 N.3     1  UNL1       -0.1248
      5 C           0.0110   31.0010   20.1170 C.3     1  UNL1        0.2070
      6 O          -0.6410   30.1350   20.9890 O.3     1  UNL1       -0.2186
      7 C           1.5830   30.9300   20.2630 C.3     1  UNL1        0.2122
      8 O           1.9830   31.2380   21.5830 O.3     1  UNL1       -0.2177
      9 C           2.2700   31.9250   19.2700 C.3     1  UNL1        0.1696
     10 O           1.8500   31.6010   17.9200 O.3     1  UNL1       -0.3276
     11 C           3.8250   31.8720   19.3580 C.3     1  UNL1        0.1415
     12 C          -1.6080   36.2500   15.5080 C.3     1  UNL1        0.1261
     13 N          -1.6420   37.3480   14.5220 N.3     1  UNL1       -0.1301
     14 C          -1.4120   34.8950   14.7870 C.3     1  UNL1        0.1989
     15 C          -1.3850   33.7280   15.8460 C.3     1  UNL1        0.1779
     16 O          -1.1740   32.4320   15.1970 O.3     1  UNL1       -0.3258
     17 C          -0.1910   33.9360   16.8470 C.3     1  UNL1        0.1649
     18 C          -0.3200   35.3120   17.5790 C.3     1  UNL1        0.1230
     19 N           0.8110   35.4860   18.5050 N.3     1  UNL1       -0.1302
     20 C          -0.3630   36.4770   16.5160 C.3     1  UNL1        0.0433
     21 C          -2.1650   31.6600   14.6150 C.3     1  UNL1        0.2694
     22 C          -1.6160   30.8160   13.4290 C.3     1  UNL1        0.2373
     23 C          -2.5270   29.6000   13.5300 C.3     1  UNL1        0.1827
     24 C          -2.7750   29.3490   15.0320 C.3     1  UNL1        0.1804
     25 O          -2.8110   30.6980   15.5120 O.3     1  UNL1       -0.3257
     26 C          -1.6620   28.5090   15.7630 C.3     1  UNL1        0.2141
     27 C          -7.3210   27.5690   11.7890 C.3     1  UNL1        0.2122
     28 C          -6.2740   27.8880   10.6010 C.3     1  UNL1        0.2070
     29 C          -5.3750   29.1750   11.0010 C.3     1  UNL1        0.1807
     30 C          -4.5770   28.8210   12.3450 C.3     1  UNL1        0.2561
     31 O          -3.7860   29.9040   12.7940 O.3     1  UNL1       -0.3265
     32 C          -6.4670   27.2300   13.1350 C.3     1  UNL1        0.1696
     33 O          -5.5630   28.3890   13.4600 O.3     1  UNL1       -0.3276
     34 C          -7.3930   26.9290   14.3610 C.3     1  UNL1        0.1415
     35 N           4.4460   32.7850   18.4610 N.3     1  UNL1       -0.1286
     36 O          -1.5610   31.5140   12.2180 O.3     1  UNL1       -0.2150
     37 O          -5.3660   26.7080   10.3860 O.3     1  UNL1       -0.2186
     38 O          -8.1850   28.7060   11.9640 O.3     1  UNL1       -0.2177
     39 O          -2.2150   27.9750   17.0030 O.3     1  UNL1       -0.2176
     40 O          -2.4970   34.7060   13.9180 O.3     1  UNL1       -0.2189
     41 N          -7.6990   28.1260   15.2120 N.3     1  UNL1       -0.1286
     42 N          -6.1970   30.3990   11.2230 N.3     1  UNL1       -0.1248
@<TRIPOS>BOND
     1     1    10    1
     2     1     2    1
     3     1     3    1
     4     3     4    1
     5     3     5    1
     6     5     7    1
     7     5     6    1
     8     7     9    1
     9     7     8    1
    10     9    10    1
    11     9    11    1
    12    11    35    1
    13    12    13    1
    14    12    14    1
    15    12    20    1
    16    14    40    1
    17    14    15    1
    18    15    16    1
    19    15    17    1
    20    17     2    1
    21    17    18    1
    22    18    20    1
    23    18    19    1
    24    21    16    1
    25    21    22    1
    26    21    25    1
    27    22    36    1
    28    22    23    1
    29    23    31    1
    30    23    24    1
    31    24    25    1
    32    24    26    1
    33    26    39    1
    34    27    28    1
    35    27    32    1
    36    27    38    1
    37    28    29    1
    38    28    37    1
    39    29    42    1
    40    29    30    1
    41    30    33    1
    42    30    31    1
    43    32    33    1
    44    32    34    1
    45    34    41    1
