1Q8N_MGR_A_39
  1228              3D

 50 52  0  0  0  0  0  0  0  0999 V2000
    0.0177   -0.3946   -1.6207 C   0  0  0  0  0  0  0  0  0  0  0  0
   -0.5129    0.8674   -1.5846 C   0  0  0  0  0  0  0  0  0  0  0  0
    0.2220    1.9975   -0.9903 C   0  0  0  0  0  0  0  0  0  0  0  0
   -0.2563    3.2318   -1.2100 C   0  0  0  0  0  0  0  0  0  0  0  0
   -0.7238    3.3889   -2.6218 C   0  0  0  0  0  0  0  0  0  0  0  0
   -0.1430    4.2023   -3.4470 N   0  3  0  0  0  0  0  0  0  0  0  0
   -0.9091    5.0965   -4.3480 C   0  0  0  0  0  0  0  0  0  0  0  0
    1.3413    4.2226   -3.5766 C   0  0  0  0  0  0  0  0  0  0  0  0
   -1.7649    2.3931   -3.0143 C   0  0  0  0  0  0  0  0  0  0  0  0
   -1.6871    1.1827   -2.4286 C   0  0  0  0  0  0  0  0  0  0  0  0
   -0.9568   -1.5093   -1.3235 C   0  0  0  0  0  0  0  0  0  0  0  0
   -1.2817   -2.4799   -2.2800 C   0  0  0  0  0  0  0  0  0  0  0  0
   -2.4430   -3.2464   -2.1364 C   0  0  0  0  0  0  0  0  0  0  0  0
   -3.3419   -2.9889   -1.1020 C   0  0  0  0  0  0  0  0  0  0  0  0
   -3.0429   -2.0228   -0.1462 C   0  0  0  0  0  0  0  0  0  0  0  0
   -1.8513   -1.3112   -0.2492 C   0  0  0  0  0  0  0  0  0  0  0  0
    1.5368   -0.6006   -1.8102 C   0  0  0  0  0  0  0  0  0  0  0  0
    1.9573   -1.9352   -1.8797 C   0  0  0  0  0  0  0  0  0  0  0  0
    2.4890   -2.4801   -3.0551 C   0  0  0  0  0  0  0  0  0  0  0  0
    2.7080   -1.6955   -4.1967 C   0  0  0  0  0  0  0  0  0  0  0  0
    2.5535   -0.3195   -4.0404 C   0  0  0  0  0  0  0  0  0  0  0  0
    2.0609    0.2030   -2.8424 C   0  0  0  0  0  0  0  0  0  0  0  0
    2.7648   -2.2443   -5.4800 N   0  0  0  0  0  0  0  0  0  0  0  0
    2.1260   -3.5307   -5.7425 C   0  0  0  0  0  0  0  0  0  0  0  0
    3.8323   -1.8388   -6.3844 C   0  0  0  0  0  0  0  0  0  0  0  0
    0.7244    1.7963   -0.0450 H   0  0  0  0  0  0  0  0  0  0  0  0
   -0.0565    4.0972   -0.5985 H   0  0  0  0  0  0  0  0  0  0  0  0
   -0.6686    6.1278   -4.0804 H   0  0  0  0  0  0  0  0  0  0  0  0
   -1.9821    4.9239   -4.2402 H   0  0  0  0  0  0  0  0  0  0  0  0
   -0.5955    4.8834   -5.3735 H   0  0  0  0  0  0  0  0  0  0  0  0
    1.6358    5.0831   -4.1827 H   0  0  0  0  0  0  0  0  0  0  0  0
    1.6601    3.2955   -4.0574 H   0  0  0  0  0  0  0  0  0  0  0  0
    1.7894    4.3231   -2.5840 H   0  0  0  0  0  0  0  0  0  0  0  0
   -2.5288    2.6405   -3.7397 H   0  0  0  0  0  0  0  0  0  0  0  0
   -2.4327    0.4231   -2.6424 H   0  0  0  0  0  0  0  0  0  0  0  0
   -0.5567   -2.7816   -3.0342 H   0  0  0  0  0  0  0  0  0  0  0  0
   -2.6487   -4.0529   -2.8366 H   0  0  0  0  0  0  0  0  0  0  0  0
   -4.2631   -3.5586   -1.0179 H   0  0  0  0  0  0  0  0  0  0  0  0
   -3.7299   -1.8131    0.6658 H   0  0  0  0  0  0  0  0  0  0  0  0
   -1.5855   -0.6208    0.5541 H   0  0  0  0  0  0  0  0  0  0  0  0
    1.8306   -2.5814   -1.0092 H   0  0  0  0  0  0  0  0  0  0  0  0
    2.8436   -3.5104   -3.0282 H   0  0  0  0  0  0  0  0  0  0  0  0
    2.7697    0.3605   -4.8573 H   0  0  0  0  0  0  0  0  0  0  0  0
    2.0441    1.2885   -2.7442 H   0  0  0  0  0  0  0  0  0  0  0  0
    1.3178   -3.7643   -5.0370 H   0  0  0  0  0  0  0  0  0  0  0  0
    2.8750   -4.3309   -5.6989 H   0  0  0  0  0  0  0  0  0  0  0  0
    1.6755   -3.5295   -6.7435 H   0  0  0  0  0  0  0  0  0  0  0  0
    4.4204   -0.9913   -6.0153 H   0  0  0  0  0  0  0  0  0  0  0  0
    4.5201   -2.6715   -6.5677 H   0  0  0  0  0  0  0  0  0  0  0  0
    3.3961   -1.5394   -7.3462 H   0  0  0  0  0  0  0  0  0  0  0  0
  2  1  2  0  0  0  0
  3  2  1  0  0  0  0
  4  3  2  0  0  0  0
  5  4  1  0  0  0  0
  6  5  2  0  0  0  0
  7  6  1  0  0  0  0
  8  6  1  0  0  0  0
  9  5  1  0  0  0  0
 10  9  2  0  0  0  0
 10  2  1  0  0  0  0
 11  1  1  0  0  0  0
 12 11  2  0  0  0  0
 13 12  1  0  0  0  0
 14 13  2  0  0  0  0
 15 14  1  0  0  0  0
 16 15  2  0  0  0  0
 16 11  1  0  0  0  0
 17  1  1  0  0  0  0
 18 17  2  0  0  0  0
 19 18  1  0  0  0  0
 20 19  2  0  0  0  0
 21 20  1  0  0  0  0
 22 21  2  0  0  0  0
 22 17  1  0  0  0  0
 23 20  1  0  0  0  0
 24 23  1  0  0  0  0
 25 23  1  0  0  0  0
  3 26  1  0  0  0  0
  4 27  1  0  0  0  0
  7 28  1  0  0  0  0
  7 29  1  0  0  0  0
  7 30  1  0  0  0  0
  8 31  1  0  0  0  0
  8 32  1  0  0  0  0
  8 33  1  0  0  0  0
  9 34  1  0  0  0  0
 10 35  1  0  0  0  0
 12 36  1  0  0  0  0
 13 37  1  0  0  0  0
 14 38  1  0  0  0  0
 15 39  1  0  0  0  0
 16 40  1  0  0  0  0
 18 41  1  0  0  0  0
 19 42  1  0  0  0  0
 21 43  1  0  0  0  0
 22 44  1  0  0  0  0
 24 45  1  0  0  0  0
 24 46  1  0  0  0  0
 24 47  1  0  0  0  0
 25 48  1  0  0  0  0
 25 49  1  0  0  0  0
 25 50  1  0  0  0  0
M  CHG  1   6   1
M  END
>  <energy>
213.93181214221707

$$$$
