REMARK  3 active torsions:
REMARK  status: ('A' for Active; 'I' for Inactive)
REMARK    1  A    between atoms: C_11  and  C_1 
REMARK    2  A    between atoms: C_17  and  C_1 
REMARK    3  A    between atoms: N_23  and  C_20 
ROOT
ATOM      1  C   UNL d   1       0.018  -0.395  -1.621  0.00  0.00    -0.020 C 
ATOM      2  C   UNL d   1      -0.513   0.867  -1.585  0.00  0.00    -0.028 C 
ATOM      3  C   UNL d   1       0.222   1.998  -0.990  0.00  0.00     0.014 C 
ATOM      4  C   UNL d   1      -0.256   3.232  -1.210  0.00  0.00     0.030 C 
ATOM      5  C   UNL d   1      -0.724   3.389  -2.622  0.00  0.00     0.029 C 
ATOM      6  N   UNL d   1      -0.143   4.202  -3.447  0.00  0.00    -0.390 N 
ATOM      7  C   UNL d   1      -0.909   5.096  -4.348  0.00  0.00     0.149 C 
ATOM      8  C   UNL d   1       1.341   4.223  -3.577  0.00  0.00     0.149 C 
ATOM      9  C   UNL d   1      -1.765   2.393  -3.014  0.00  0.00     0.030 C 
ATOM     10  C   UNL d   1      -1.687   1.183  -2.429  0.00  0.00     0.014 C 
ENDROOT
BRANCH   1  11
ATOM     11  C   UNL d   1      -0.957  -1.509  -1.323  0.00  0.00    -0.028 A 
ATOM     12  C   UNL d   1      -1.282  -2.480  -2.280  0.00  0.00     0.012 A 
ATOM     13  C   UNL d   1      -2.443  -3.246  -2.136  0.00  0.00     0.001 A 
ATOM     14  C   UNL d   1      -3.342  -2.989  -1.102  0.00  0.00     0.000 A 
ATOM     15  C   UNL d   1      -3.043  -2.023  -0.146  0.00  0.00     0.001 A 
ATOM     16  C   UNL d   1      -1.851  -1.311  -0.249  0.00  0.00     0.012 A 
ENDBRANCH   1  11
BRANCH   1  17
ATOM     17  C   UNL d   1       1.537  -0.601  -1.810  0.00  0.00     0.043 C 
ATOM     18  C   UNL d   1       1.957  -1.935  -1.880  0.00  0.00    -0.004 C 
ATOM     19  C   UNL d   1       2.489  -2.480  -3.055  0.00  0.00     0.026 C 
ATOM     20  C   UNL d   1       2.708  -1.696  -4.197  0.00  0.00     0.028 C 
ATOM     21  C   UNL d   1       2.554  -0.320  -4.040  0.00  0.00     0.026 C 
ATOM     22  C   UNL d   1       2.061   0.203  -2.842  0.00  0.00    -0.004 C 
BRANCH  20  23
ATOM     23  N   UNL d   1       2.765  -2.244  -5.480  0.00  0.00    -0.390 N 
ATOM     24  C   UNL d   1       2.126  -3.531  -5.742  0.00  0.00     0.149 C 
ATOM     25  C   UNL d   1       3.832  -1.839  -6.384  0.00  0.00     0.149 C 
ENDBRANCH  20  23
ENDBRANCH   1  17
TORSDOF 3
