@<TRIPOS>MOLECULE
1Q8N_MGR_A_39
 50 52 0 0 0
SMALL
GASTEIGER

@<TRIPOS>ATOM
      1 C           0.0177   -0.3946   -1.6207 C.2     1  UNL1       -0.0036
      2 C          -0.5129    0.8674   -1.5846 C.2     1  UNL1       -0.0163
      3 C           0.2220    1.9975   -0.9903 C.2     1  UNL1       -0.0478
      4 C          -0.2563    3.2318   -1.2100 C.2     1  UNL1        0.0098
      5 C          -0.7238    3.3889   -2.6218 C.2     1  UNL1        0.2021
      6 N          -0.1430    4.2023   -3.4470 N.2     1  UNL1       -0.2338
      7 C          -0.9091    5.0965   -4.3480 C.3     1  UNL1        0.1352
      8 C           1.3413    4.2226   -3.5766 C.3     1  UNL1        0.1352
      9 C          -1.7649    2.3931   -3.0143 C.2     1  UNL1        0.0098
     10 C          -1.6871    1.1827   -2.4286 C.2     1  UNL1       -0.0478
     11 C          -0.9568   -1.5093   -1.3235 C.ar    1  UNL1       -0.0168
     12 C          -1.2817   -2.4799   -2.2800 C.ar    1  UNL1       -0.0540
     13 C          -2.4430   -3.2464   -2.1364 C.ar    1  UNL1       -0.0612
     14 C          -3.3419   -2.9889   -1.1020 C.ar    1  UNL1       -0.0617
     15 C          -3.0429   -2.0228   -0.1462 C.ar    1  UNL1       -0.0612
     16 C          -1.8513   -1.3112   -0.2492 C.ar    1  UNL1       -0.0540
     17 C           1.5368   -0.6006   -1.8102 C.ar    1  UNL1       -0.0166
     18 C           1.9573   -1.9352   -1.8797 C.ar    1  UNL1       -0.0522
     19 C           2.4890   -2.4801   -3.0551 C.ar    1  UNL1       -0.0401
     20 C           2.7080   -1.6955   -4.1967 C.ar    1  UNL1        0.0292
     21 C           2.5535   -0.3195   -4.0404 C.ar    1  UNL1       -0.0401
     22 C           2.0609    0.2030   -2.8424 C.ar    1  UNL1       -0.0522
     23 N           2.7648   -2.2443   -5.4800 N.pl3   1  UNL1       -0.3360
     24 C           2.1260   -3.5307   -5.7425 C.3     1  UNL1        0.0004
     25 C           3.8323   -1.8388   -6.3844 C.3     1  UNL1        0.0004
     26 H           0.7244    1.7963   -0.0450 H       1  UNL1        0.0626
     27 H          -0.0565    4.0972   -0.5985 H       1  UNL1        0.0683
     28 H          -0.6686    6.1278   -4.0804 H       1  UNL1        0.0988
     29 H          -1.9821    4.9239   -4.2402 H       1  UNL1        0.0988
     30 H          -0.5955    4.8834   -5.3735 H       1  UNL1        0.0988
     31 H           1.6358    5.0831   -4.1827 H       1  UNL1        0.0988
     32 H           1.6601    3.2955   -4.0574 H       1  UNL1        0.0988
     33 H           1.7894    4.3231   -2.5840 H       1  UNL1        0.0988
     34 H          -2.5288    2.6405   -3.7397 H       1  UNL1        0.0683
     35 H          -2.4327    0.4231   -2.6424 H       1  UNL1        0.0626
     36 H          -0.5567   -2.7816   -3.0342 H       1  UNL1        0.0624
     37 H          -2.6487   -4.0529   -2.8366 H       1  UNL1        0.0618
     38 H          -4.2631   -3.5586   -1.0179 H       1  UNL1        0.0618
     39 H          -3.7299   -1.8131    0.6658 H       1  UNL1        0.0618
     40 H          -1.5855   -0.6208    0.5541 H       1  UNL1        0.0624
     41 H           1.8306   -2.5814   -1.0092 H       1  UNL1        0.0624
     42 H           2.8436   -3.5104   -3.0282 H       1  UNL1        0.0636
     43 H           2.7697    0.3605   -4.8573 H       1  UNL1        0.0636
     44 H           2.0441    1.2885   -2.7442 H       1  UNL1        0.0624
     45 H           1.3178   -3.7643   -5.0370 H       1  UNL1        0.0428
     46 H           2.8750   -4.3309   -5.6989 H       1  UNL1        0.0428
     47 H           1.6755   -3.5295   -6.7435 H       1  UNL1        0.0428
     48 H           4.4204   -0.9913   -6.0153 H       1  UNL1        0.0428
     49 H           4.5201   -2.6715   -6.5677 H       1  UNL1        0.0428
     50 H           3.3961   -1.5394   -7.3462 H       1  UNL1        0.0428
@<TRIPOS>BOND
     1     2     1    2
     2     3     2    1
     3     4     3    2
     4     5     4    1
     5     6     5    2
     6     7     6    1
     7     8     6    1
     8     9     5    1
     9    10     9    2
    10    10     2    1
    11    11     1    1
    12    12    11   ar
    13    13    12   ar
    14    14    13   ar
    15    15    14   ar
    16    16    15   ar
    17    16    11   ar
    18    17     1    1
    19    18    17   ar
    20    19    18   ar
    21    20    19   ar
    22    21    20   ar
    23    22    21   ar
    24    22    17   ar
    25    23    20    1
    26    24    23    1
    27    25    23    1
    28     3    26    1
    29     4    27    1
    30     7    28    1
    31     7    29    1
    32     7    30    1
    33     8    31    1
    34     8    32    1
    35     8    33    1
    36     9    34    1
    37    10    35    1
    38    12    36    1
    39    13    37    1
    40    14    38    1
    41    15    39    1
    42    16    40    1
    43    18    41    1
    44    19    42    1
    45    21    43    1
    46    22    44    1
    47    24    45    1
    48    24    46    1
    49    24    47    1
    50    25    48    1
    51    25    49    1
    52    25    50    1
