@<TRIPOS>MOLECULE
ligand.pdb
 22 22 0 0 0
SMALL
GASTEIGER

@<TRIPOS>ATOM
      1 C          70.0280  126.7890  105.7840 C.2     0  UNK0        0.2603
      2 O          68.7500  126.5990  106.4030 O.2     0  UNK0       -0.2719
      3 N          70.9180  125.6880  105.6740 N.am    0  UNK0       -0.0935
      4 C          72.1800  125.8470  105.0700 C.1     0  UNK0        0.2279
      5 O          73.0740  124.7340  104.9580 O.2     0  UNK0       -0.2067
      6 N          72.5610  127.1110  104.5820 N.am    0  UNK0       -0.1382
      7 C          71.6860  128.2240  104.6820 C.2     0  UNK0        0.0472
      8 C          72.1530  129.5930  104.1290 C.3     0  UNK0        0.0458
      9 C          70.4070  128.0720  105.2950 C.3     0  UNK0        0.1140
     10 C          69.4310  129.2740  105.4170 C.3     0  UNK0        0.0243
     11 C          68.3770  129.2130  104.2910 C.3     0  UNK0        0.0877
     12 C          67.4210  130.4120  104.4120 C.2     0  UNK0        0.2414
     13 O          66.2150  130.0030  105.0630 O.2     0  UNK0       -0.2733
     14 N          67.7150  131.7930  103.9200 N.am    1  UNK1       -0.2036
     15 C          67.4730  131.9270  102.4480 C.3     1  UNK1        0.1389
     16 C          67.8240  133.3640  102.0080 C.3     1  UNK1        0.2045
     17 O          68.6850  133.3160  100.8660 O.3     1  UNK1       -0.2185
     18 C          65.9820  131.6540  102.0880 C.3     1  UNK1        0.0827
     19 S          64.8890  132.6500  103.1410 S.3     1  UNK1       -0.1264
     20 C          63.1630  132.3240  102.7130 C.3     1  UNK1        0.1147
     21 S          62.2890  133.8970  102.5320 S.3     1  UNK1       -0.1274
     22 C          60.5590  133.5810  102.1040 C.3     1  UNK1        0.0701
@<TRIPOS>BOND
     1     1     2    2
     2     1     3    1
     3     1     9    1
     4     3     4    2
     5     4     5    2
     6     4     6    1
     7     6     7    2
     8     7     8    1
     9     7     9    1
    10     9    10    1
    11    10    11    1
    12    11    12    1
    13    12    13    2
    14    12    14   am
    15    14    15    1
    16    15    16    1
    17    15    18    1
    18    16    17    1
    19    18    19    1
    20    19    20    1
    21    20    21    1
    22    21    22    1
