@<TRIPOS>MOLECULE
ligand.pdb
 10 9 0 0 0
SMALL
GASTEIGER

@<TRIPOS>ATOM
      1 N          32.3850   16.2180   19.3540 N.3     1  LYS1       -0.1208
      2 CA         31.7660   16.9520   20.4980 C.3     1  LYS1        0.1943
      3 C          32.8260   17.4420   21.4840 C.2     1  LYS1        0.3819
      4 O          34.0130   17.1570   21.3350 O.co2   1  LYS1       -0.2441
      5 CB         30.7020   16.0910   21.1890 C.3     1  LYS1        0.0307
      6 CG         29.3880   16.0280   20.4110 C.3     1  LYS1        0.0036
      7 CD         28.3260   15.2030   21.1250 C.3     1  LYS1        0.0206
      8 CE         27.0290   15.1610   20.3230 C.3     1  LYS1        0.1093
      9 NZ         27.1440   14.3690   19.0500 N.3     1  LYS1       -0.1314
     10 OXT        32.5480   18.1600   22.4490 O.co2   1  LYS1       -0.2441
@<TRIPOS>BOND
     1     2     3    1
     2     2     5    1
     3     2     1    1
     4     3     4   ar
     5     3    10   ar
     6     5     6    1
     7     6     7    1
     8     7     8    1
     9     8     9    1
