3Q50_PRF_A_34
 OpenBabel10091713583D
Coordinates from PDB:3Q50:A:34 Model:1 without hydrogens
 13 14  0  0  0  0  0  0  0  0999 V2000
   34.2370   33.9080   23.1640 N   0  0  0  0  0  0  0  0  0  0  0  0
   33.6300   32.7720   23.7300 C   0  0  0  0  0  0  0  0  0  0  0  0
   34.0060   32.1660   24.8820 N   0  0  0  0  0  0  0  0  0  0  0  0
   35.0970   32.7970   25.4720 C   0  0  0  0  0  0  0  0  0  0  0  0
   35.7730   33.9180   24.9750 C   0  0  0  0  0  0  0  0  0  0  0  0
   35.3630   34.5330   23.7830 C   0  0  0  0  0  0  0  0  0  0  0  0
   35.8560   35.5200   23.2570 O   0  0  0  0  0  0  0  0  0  0  0  0
   36.8220   34.2520   25.8620 C   0  0  0  0  0  0  0  0  0  0  0  0
   37.7330   35.4120   25.6640 C   0  0  0  0  0  0  0  0  0  0  0  0
   38.8430   35.3780   26.6290 N   0  0  0  0  0  0  0  0  0  0  0  0
   36.7770   33.3220   26.8890 C   0  0  0  0  0  0  0  0  0  0  0  0
   35.7130   32.4160   26.6500 N   0  0  0  0  0  0  0  0  0  0  0  0
   32.5310   32.2550   23.0570 N   0  0  0  0  0  0  0  0  0  0  0  0
  1  2  1  0  0  0  0
  1  6  1  0  0  0  0
  2  3  2  0  0  0  0
  2 13  1  0  0  0  0
  3  4  1  0  0  0  0
  4  5  2  0  0  0  0
  4 12  1  0  0  0  0
  5  6  1  0  0  0  0
  5  8  1  0  0  0  0
  6  7  2  0  0  0  0
  8  9  1  0  0  0  0
  8 11  2  0  0  0  0
  9 10  1  0  0  0  0
 11 12  1  0  0  0  0
A    1
N1
A    2
C2
A    3
N3
A    4
C4
A    5
C5
A    6
C6
A    7
O6
A    8
C7
A    9
C10
A   10
N11
A   11
C8
A   12
N9
A   13
N2
M  END
>  <InstanceId>
3Q50_PRF_A_34

>  <ChemCompId>
PRF

>  <PdbId>
3Q50

>  <ChainId>
A

>  <ResidueNumber>
34

>  <InsertionCode>


>  <Model>
1

>  <AltIds>


>  <MissingHeavyAtoms>
0

>  <ObservedFormula>
C7 N5 O

>  <Name>
7-DEAZA-7-AMINOMETHYL-GUANINE

>  <SystematicName>
2-amino-5-(aminomethyl)-3,7-dihydropyrrolo[3,2-e]pyrimidin-4-one

>  <Synonyms>


>  <Type>
NON-POLYMER

>  <Formula>
C7 H9 N5 O

>  <MolecularWeight>
179.179

>  <ModifiedDate>
2011-06-04

>  <Parent>


>  <OneLetterCode>


>  <SubcomponentList>


>  <AmbiguousFlag>
N

>  <InChI>
InChI=1S/C7H9N5O/c8-1-3-2-10-5-4(3)6(13)12-7(9)11-5/h2H,1,8H2,(H4,9,10,11,12,13)

>  <InChIKey>
MEYMBLGOKYDGLZ-UHFFFAOYSA-N

>  <SMILES>
c1c(c2c([nH]1)N=C(NC2=O)N)CN

$$$$
