@<TRIPOS>MOLECULE
3Q50_PRF_A_34
 13 14 0 0 0
SMALL
GASTEIGER
****
Coordinates from PDB:3Q50:A:34 Model:1 without hydrogens
@<TRIPOS>ATOM
      1 N          34.2370   33.9080   23.1640 N.ar    1  UNL1       -0.1723
      2 C          33.6300   32.7720   23.7300 C.ar    1  UNL1        0.2606
      3 N          34.0060   32.1660   24.8820 N.ar    1  UNL1       -0.1918
      4 C          35.0970   32.7970   25.4720 C.ar    1  UNL1        0.1697
      5 C          35.7730   33.9180   24.9750 C.ar    1  UNL1        0.0927
      6 C          35.3630   34.5330   23.7830 C.ar    1  UNL1        0.2843
      7 O          35.8560   35.5200   23.2570 O.2     1  UNL1       -0.2650
      8 C          36.8220   34.2520   25.8620 C.ar    1  UNL1        0.0236
      9 C          37.7330   35.4120   25.6640 C.3     1  UNL1        0.1374
     10 N          38.8430   35.3780   26.6290 N.3     1  UNL1       -0.1262
     11 C          36.7770   33.3220   26.8890 C.ar    1  UNL1        0.0980
     12 N          35.7130   32.4160   26.6500 N.ar    1  UNL1       -0.2251
     13 N          32.5310   32.2550   23.0570 N.pl3   1  UNL1       -0.0859
@<TRIPOS>BOND
     1     1     2   ar
     2     1     6   ar
     3     2     3   ar
     4     2    13    1
     5     3     4   ar
     6     4     5   ar
     7     4    12   ar
     8     5     6   ar
     9     5     8   ar
    10     6     7    2
    11     8     9    1
    12     8    11   ar
    13     9    10    1
    14    11    12   ar
