REMARK  16 active torsions:
REMARK  status: ('A' for Active; 'I' for Inactive)
REMARK    1  A    between atoms: O_1  and  C_2 
REMARK    2  A    between atoms: C_2  and  C_3 
REMARK    3  A    between atoms: C_5  and  O_6 
REMARK    4  A    between atoms: C_7  and  O_6 
REMARK    5  A    between atoms: C_8  and  O_9 
REMARK    6  A    between atoms: C_10  and  N_11 
REMARK    7  A    between atoms: C_13  and  N_14 
REMARK    8  A    between atoms: C_15  and  O_16 
REMARK    9  A    between atoms: O_16  and  C_17 
REMARK   10  A    between atoms: C_19  and  C_20 
REMARK   11  A    between atoms: C_20  and  N_21 
REMARK   12  A    between atoms: C_22  and  O_23 
REMARK   13  A    between atoms: C_24  and  O_25 
REMARK   14  A    between atoms: C_26  and  N_27 
REMARK   15  A    between atoms: C_28  and  O_29 
REMARK   16  A    between atoms: C_30  and  O_31 
ROOT
ATOM      1  C   UNL d   1       6.562   2.929   9.548  0.00  0.00     0.186 C 
ATOM      2  C   UNL d   1       6.027   3.482  10.887  0.00  0.00     0.182 C 
ATOM      3  C   UNL d   1       6.749   2.832  12.078  0.00  0.00     0.251 C 
ATOM      4  C   UNL d   1       8.269   3.001  11.966  0.00  0.00     0.076 C 
ATOM      5  C   UNL d   1       8.785   2.505  10.612  0.00  0.00     0.251 C 
ATOM      6  C   UNL d   1       8.073   3.256   9.457  0.00  0.00     0.189 C 
ENDROOT
BRANCH   6   7
ATOM      7  O   UNL d   1       8.646   2.807   8.229  0.00  0.00    -0.349 OA
BRANCH   7   8
ATOM      8  C   UNL d   1       8.981   3.744   7.188  0.00  0.00     0.296 C 
ATOM      9  O   UNL d   1       7.860   3.860   6.296  0.00  0.00    -0.349 OA
ATOM     10  C   UNL d   1       7.862   4.961   5.383  0.00  0.00     0.183 C 
ATOM     11  C   UNL d   1       7.888   6.301   6.136  0.00  0.00     0.179 C 
ATOM     12  C   UNL d   1       8.511   6.198   7.533  0.00  0.00     0.187 C 
ATOM     13  C   UNL d   1       9.597   5.123   7.561  0.00  0.00     0.303 C 
BRANCH  10  14
ATOM     14  C   UNL d   1       8.860   4.739   4.223  0.00  0.00     0.301 C 
BRANCH  14  15
ATOM     15  N   UNL d   1      10.121   5.460   4.317  0.00  0.00     0.080 N 
ATOM     16  H   UNL d   1      10.001   6.409   3.962  0.00  0.00     0.312 HD
ATOM     17  H   UNL d   1      10.809   5.018   3.710  0.00  0.00     0.312 HD
ENDBRANCH  14  15
ENDBRANCH  10  14
BRANCH  11  18
ATOM     18  O   UNL d   1       6.533   6.732   6.316  0.00  0.00    -0.390 OA
ATOM     19  H   UNL d   1       6.548   7.698   6.422  0.00  0.00     0.210 HD
ENDBRANCH  11  18
BRANCH  12  20
ATOM     20  O   UNL d   1       9.064   7.473   7.856  0.00  0.00    -0.391 OA
ATOM     21  H   UNL d   1       8.378   7.977   8.326  0.00  0.00     0.210 HD
ENDBRANCH  12  20
BRANCH  13  22
ATOM     22  N   UNL d   1      10.381   5.132   8.789  0.00  0.00     0.090 N 
ATOM     23  H   UNL d   1      10.735   6.070   8.965  0.00  0.00     0.313 HD
ATOM     24  H   UNL d   1      11.204   4.539   8.674  0.00  0.00     0.313 HD
ENDBRANCH  13  22
ENDBRANCH   7   8
ENDBRANCH   6   7
BRANCH   5  25
ATOM     25  N   UNL d   1      10.238   2.660  10.581  0.00  0.00     0.085 N 
ATOM     26  H   UNL d   1      10.480   3.649  10.624  0.00  0.00     0.313 HD
ATOM     27  H   UNL d   1      10.594   2.319   9.688  0.00  0.00     0.313 HD
ENDBRANCH   5  25
BRANCH   1  28
ATOM     28  O   UNL d   1       5.828   3.555   8.486  0.00  0.00    -0.348 OA
BRANCH  28  29
ATOM     29  C   UNL d   1       5.307   2.620   7.529  0.00  0.00     0.292 C 
ATOM     30  O   UNL d   1       5.146   3.267   6.248  0.00  0.00    -0.348 OA
ATOM     31  C   UNL d   1       3.747   3.428   5.958  0.00  0.00     0.179 C 
ATOM     32  C   UNL d   1       3.022   3.170   7.270  0.00  0.00     0.182 C 
ATOM     33  C   UNL d   1       3.917   2.135   7.923  0.00  0.00     0.204 C 
BRANCH  31  34
ATOM     34  C   UNL d   1       3.509   4.813   5.377  0.00  0.00     0.198 C 
BRANCH  34  35
ATOM     35  O   UNL d   1       2.182   4.890   4.876  0.00  0.00    -0.398 OA
ATOM     36  H   UNL d   1       1.935   5.830   4.854  0.00  0.00     0.209 HD
ENDBRANCH  34  35
ENDBRANCH  31  34
BRANCH  32  37
ATOM     37  O   UNL d   1       1.705   2.708   7.063  0.00  0.00    -0.390 OA
ATOM     38  H   UNL d   1       1.232   2.786   7.910  0.00  0.00     0.210 HD
ENDBRANCH  32  37
BRANCH  33  39
ATOM     39  O   UNL d   1       3.687   0.860   7.327  0.00  0.00    -0.388 OA
ATOM     40  H   UNL d   1       4.114   0.197   7.896  0.00  0.00     0.210 HD
ENDBRANCH  33  39
ENDBRANCH  28  29
ENDBRANCH   1  28
BRANCH   2  41
ATOM     41  O   UNL d   1       4.633   3.201  11.000  0.00  0.00    -0.391 OA
ATOM     42  H   UNL d   1       4.159   4.046  10.913  0.00  0.00     0.210 HD
ENDBRANCH   2  41
BRANCH   3  43
ATOM     43  N   UNL d   1       6.273   3.406  13.337  0.00  0.00     0.085 N 
ATOM     44  H   UNL d   1       6.596   4.370  13.423  0.00  0.00     0.313 HD
ATOM     45  H   UNL d   1       6.684   2.900  14.121  0.00  0.00     0.313 HD
ENDBRANCH   3  43
TORSDOF 16
