@<TRIPOS>MOLECULE
2FCZ_RIO_A_1024
 65 67 0 0 0
SMALL
GASTEIGER

@<TRIPOS>ATOM
      1 O           2.1819    4.8897    4.8759 O.3     1  UNL1       -0.3924
      2 C           3.5094    4.8134    5.3769 C.3     1  UNL1        0.0730
      3 C           3.7469    3.4281    5.9581 C.3     1  UNL1        0.1131
      4 H           3.4809    2.6738    5.2068 H       1  UNL1        0.0647
      5 O           5.1461    3.2665    6.2480 O.3     1  UNL1       -0.3405
      6 C           5.3074    2.6198    7.5293 C.3     1  UNL1        0.1884
      7 H           6.0109    1.7950    7.3764 H       1  UNL1        0.0938
      8 O           5.8283    3.5546    8.4859 O.3     1  UNL1       -0.3402
      9 C           6.5622    2.9295    9.5484 C.3     1  UNL1        0.1166
     10 H           6.4104    1.8409    9.5228 H       1  UNL1        0.0650
     11 C           6.0275    3.4820   10.8868 C.3     1  UNL1        0.0990
     12 H           6.1604    4.5729   10.9085 H       1  UNL1        0.0636
     13 O           4.6326    3.2011   11.0001 O.3     1  UNL1       -0.3876
     14 C           6.7492    2.8317   12.0775 C.3     1  UNL1        0.0351
     15 H           6.5126    1.7586   12.0894 H       1  UNL1        0.0485
     16 N           6.2727    3.4062   13.3368 N.3     1  UNL1       -0.3250
     17 C           8.2689    3.0010   11.9656 C.3     1  UNL1       -0.0175
     18 C           8.7847    2.5053   10.6118 C.3     1  UNL1        0.0355
     19 H           8.5776    1.4312   10.5228 H       1  UNL1        0.0485
     20 N          10.2380    2.6602   10.5812 N.3     1  UNL1       -0.3250
     21 C           8.0727    3.2560    9.4568 C.3     1  UNL1        0.1055
     22 H           8.2002    4.3300    9.5861 H       1  UNL1        0.0639
     23 O           8.6463    2.8071    8.2293 O.3     1  UNL1       -0.3422
     24 C           8.9811    3.7445    7.1883 C.3     1  UNL1        0.1776
     25 H           9.7574    3.2148    6.6212 H       1  UNL1        0.0927
     26 O           7.8599    3.8601    6.2961 O.3     1  UNL1       -0.3425
     27 C           7.8621    4.9607    5.3832 C.3     1  UNL1        0.1022
     28 H           6.8798    4.8915    4.8953 H       1  UNL1        0.0636
     29 C           8.8599    4.7395    4.2225 C.3     1  UNL1        0.0222
     30 N          10.1206    5.4602    4.3175 N.3     1  UNL1       -0.3276
     31 C           7.8880    6.3005    6.1355 C.3     1  UNL1        0.1100
     32 H           8.3699    7.0733    5.5290 H       1  UNL1        0.0646
     33 O           6.5330    6.7318    6.3162 O.3     1  UNL1       -0.3866
     34 C           8.5106    6.1984    7.5329 C.3     1  UNL1        0.1033
     35 H           7.7350    5.9921    8.2788 H       1  UNL1        0.0637
     36 O           9.0641    7.4725    7.8564 O.3     1  UNL1       -0.3874
     37 C           9.5974    5.1233    7.5606 C.3     1  UNL1        0.0853
     38 H          10.3213    5.3802    6.7850 H       1  UNL1        0.0535
     39 N          10.3811    5.1321    8.7886 N.3     1  UNL1       -0.3211
     40 C           3.9165    2.1348    7.9227 C.3     1  UNL1        0.1341
     41 H           3.7408    2.0403    8.9957 H       1  UNL1        0.0671
     42 O           3.6870    0.8597    7.3265 O.3     1  UNL1       -0.3841
     43 C           3.0225    3.1701    7.2701 C.3     1  UNL1        0.1141
     44 H           2.9905    4.0833    7.8796 H       1  UNL1        0.0648
     45 O           1.7050    2.7075    7.0634 O.3     1  UNL1       -0.3864
     46 H           1.9352    5.8298    4.8543 H       1  UNL1        0.2095
     47 H           3.6550    5.5966    6.1296 H       1  UNL1        0.0584
     48 H           4.1956    5.0067    4.5451 H       1  UNL1        0.0584
     49 H           4.1592    4.0462   10.9126 H       1  UNL1        0.2100
     50 H           6.5958    4.3697   13.4233 H       1  UNL1        0.1185
     51 H           6.6840    2.8997   14.1206 H       1  UNL1        0.1185
     52 H           8.7590    2.4528   12.7813 H       1  UNL1        0.0297
     53 H           8.5341    4.0569   12.1060 H       1  UNL1        0.0297
     54 H          10.4797    3.6490   10.6240 H       1  UNL1        0.1185
     55 H          10.5938    2.3194    9.6885 H       1  UNL1        0.1185
     56 H           8.3722    5.0396    3.2853 H       1  UNL1        0.0448
     57 H           9.0726    3.6685    4.1186 H       1  UNL1        0.0448
     58 H          10.0010    6.4085    3.9616 H       1  UNL1        0.1183
     59 H          10.8085    5.0177    3.7101 H       1  UNL1        0.1183
     60 H           6.5475    7.6982    6.4222 H       1  UNL1        0.2100
     61 H           8.3778    7.9772    8.3258 H       1  UNL1        0.2100
     62 H          10.7351    6.0698    8.9651 H       1  UNL1        0.1187
     63 H          11.2038    4.5386    8.6736 H       1  UNL1        0.1187
     64 H           4.1136    0.1968    7.8960 H       1  UNL1        0.2101
     65 H           1.2324    2.7862    7.9096 H       1  UNL1        0.2100
@<TRIPOS>BOND
     1     1     2    1
     2     1    46    1
     3     2     3    1
     4     2    47    1
     5     2    48    1
     6     3     4    1
     7     3     5    1
     8     3    43    1
     9     5     6    1
    10     6    40    1
    11     6     8    1
    12     6     7    1
    13     9    11    1
    14     9    10    1
    15     9     8    1
    16    11    12    1
    17    11    13    1
    18    11    14    1
    19    13    49    1
    20    14    15    1
    21    14    16    1
    22    14    17    1
    23    16    50    1
    24    16    51    1
    25    17    18    1
    26    17    52    1
    27    17    53    1
    28    18    19    1
    29    18    20    1
    30    18    21    1
    31    20    54    1
    32    20    55    1
    33    21     9    1
    34    21    23    1
    35    21    22    1
    36    23    24    1
    37    24    25    1
    38    24    26    1
    39    24    37    1
    40    26    27    1
    41    27    28    1
    42    27    29    1
    43    27    31    1
    44    29    30    1
    45    29    56    1
    46    29    57    1
    47    30    58    1
    48    30    59    1
    49    31    33    1
    50    31    32    1
    51    33    60    1
    52    34    31    1
    53    34    35    1
    54    34    36    1
    55    36    61    1
    56    37    34    1
    57    37    39    1
    58    37    38    1
    59    39    62    1
    60    39    63    1
    61    40    41    1
    62    40    42    1
    63    40    43    1
    64    42    64    1
    65    43    44    1
    66    43    45    1
    67    45    65    1
