2FCZ_RIO_A_1024
  1228              3D

 65 67  0  0  0  0  0  0  0  0999 V2000
    2.1819    4.8897    4.8759 O   0  0  0  0  0  0  0  0  0  0  0  0
    3.5094    4.8134    5.3769 C   0  0  0  0  0  0  0  0  0  0  0  0
    3.7469    3.4281    5.9581 C   0  0  0  0  0  0  0  0  0  0  0  0
    3.4809    2.6738    5.2068 H   0  0  0  0  0  0  0  0  0  0  0  0
    5.1461    3.2665    6.2480 O   0  0  0  0  0  0  0  0  0  0  0  0
    5.3074    2.6198    7.5293 C   0  0  0  0  0  0  0  0  0  0  0  0
    6.0109    1.7950    7.3764 H   0  0  0  0  0  0  0  0  0  0  0  0
    5.8283    3.5546    8.4859 O   0  0  0  0  0  0  0  0  0  0  0  0
    6.5622    2.9295    9.5484 C   0  0  0  0  0  0  0  0  0  0  0  0
    6.4104    1.8409    9.5228 H   0  0  0  0  0  0  0  0  0  0  0  0
    6.0275    3.4820   10.8868 C   0  0  0  0  0  0  0  0  0  0  0  0
    6.1604    4.5729   10.9085 H   0  0  0  0  0  0  0  0  0  0  0  0
    4.6326    3.2011   11.0001 O   0  0  0  0  0  0  0  0  0  0  0  0
    6.7492    2.8317   12.0775 C   0  0  0  0  0  0  0  0  0  0  0  0
    6.5126    1.7586   12.0894 H   0  0  0  0  0  0  0  0  0  0  0  0
    6.2727    3.4062   13.3368 N   0  0  0  0  0  0  0  0  0  0  0  0
    8.2689    3.0010   11.9656 C   0  0  0  0  0  0  0  0  0  0  0  0
    8.7847    2.5053   10.6118 C   0  0  0  0  0  0  0  0  0  0  0  0
    8.5776    1.4312   10.5228 H   0  0  0  0  0  0  0  0  0  0  0  0
   10.2380    2.6602   10.5812 N   0  0  0  0  0  0  0  0  0  0  0  0
    8.0727    3.2560    9.4568 C   0  0  0  0  0  0  0  0  0  0  0  0
    8.2002    4.3300    9.5861 H   0  0  0  0  0  0  0  0  0  0  0  0
    8.6463    2.8071    8.2293 O   0  0  0  0  0  0  0  0  0  0  0  0
    8.9811    3.7445    7.1883 C   0  0  0  0  0  0  0  0  0  0  0  0
    9.7574    3.2148    6.6212 H   0  0  0  0  0  0  0  0  0  0  0  0
    7.8599    3.8601    6.2961 O   0  0  0  0  0  0  0  0  0  0  0  0
    7.8621    4.9607    5.3832 C   0  0  0  0  0  0  0  0  0  0  0  0
    6.8798    4.8915    4.8953 H   0  0  0  0  0  0  0  0  0  0  0  0
    8.8599    4.7395    4.2225 C   0  0  0  0  0  0  0  0  0  0  0  0
   10.1206    5.4602    4.3175 N   0  0  0  0  0  0  0  0  0  0  0  0
    7.8880    6.3005    6.1355 C   0  0  0  0  0  0  0  0  0  0  0  0
    8.3699    7.0733    5.5290 H   0  0  0  0  0  0  0  0  0  0  0  0
    6.5330    6.7318    6.3162 O   0  0  0  0  0  0  0  0  0  0  0  0
    8.5106    6.1984    7.5329 C   0  0  0  0  0  0  0  0  0  0  0  0
    7.7350    5.9921    8.2788 H   0  0  0  0  0  0  0  0  0  0  0  0
    9.0641    7.4725    7.8564 O   0  0  0  0  0  0  0  0  0  0  0  0
    9.5974    5.1233    7.5606 C   0  0  0  0  0  0  0  0  0  0  0  0
   10.3213    5.3802    6.7850 H   0  0  0  0  0  0  0  0  0  0  0  0
   10.3811    5.1321    8.7886 N   0  0  0  0  0  0  0  0  0  0  0  0
    3.9165    2.1348    7.9227 C   0  0  0  0  0  0  0  0  0  0  0  0
    3.7408    2.0403    8.9957 H   0  0  0  0  0  0  0  0  0  0  0  0
    3.6870    0.8597    7.3265 O   0  0  0  0  0  0  0  0  0  0  0  0
    3.0225    3.1701    7.2701 C   0  0  0  0  0  0  0  0  0  0  0  0
    2.9905    4.0833    7.8796 H   0  0  0  0  0  0  0  0  0  0  0  0
    1.7050    2.7075    7.0634 O   0  0  0  0  0  0  0  0  0  0  0  0
    1.9352    5.8298    4.8543 H   0  0  0  0  0  0  0  0  0  0  0  0
    3.6550    5.5966    6.1296 H   0  0  0  0  0  0  0  0  0  0  0  0
    4.1956    5.0067    4.5451 H   0  0  0  0  0  0  0  0  0  0  0  0
    4.1592    4.0462   10.9126 H   0  0  0  0  0  0  0  0  0  0  0  0
    6.5958    4.3697   13.4233 H   0  0  0  0  0  0  0  0  0  0  0  0
    6.6840    2.8997   14.1206 H   0  0  0  0  0  0  0  0  0  0  0  0
    8.7590    2.4528   12.7813 H   0  0  0  0  0  0  0  0  0  0  0  0
    8.5341    4.0569   12.1060 H   0  0  0  0  0  0  0  0  0  0  0  0
   10.4797    3.6490   10.6240 H   0  0  0  0  0  0  0  0  0  0  0  0
   10.5938    2.3194    9.6885 H   0  0  0  0  0  0  0  0  0  0  0  0
    8.3722    5.0396    3.2853 H   0  0  0  0  0  0  0  0  0  0  0  0
    9.0726    3.6685    4.1186 H   0  0  0  0  0  0  0  0  0  0  0  0
   10.0010    6.4085    3.9616 H   0  0  0  0  0  0  0  0  0  0  0  0
   10.8085    5.0177    3.7101 H   0  0  0  0  0  0  0  0  0  0  0  0
    6.5475    7.6982    6.4222 H   0  0  0  0  0  0  0  0  0  0  0  0
    8.3778    7.9772    8.3258 H   0  0  0  0  0  0  0  0  0  0  0  0
   10.7351    6.0698    8.9651 H   0  0  0  0  0  0  0  0  0  0  0  0
   11.2038    4.5386    8.6736 H   0  0  0  0  0  0  0  0  0  0  0  0
    4.1136    0.1968    7.8960 H   0  0  0  0  0  0  0  0  0  0  0  0
    1.2324    2.7862    7.9096 H   0  0  0  0  0  0  0  0  0  0  0  0
  1  2  1  0  0  0  0
  1 46  1  0  0  0  0
  2  3  1  0  0  0  0
  2 47  1  0  0  0  0
  2 48  1  0  0  0  0
  3  4  1  0  0  0  0
  3  5  1  0  0  0  0
  3 43  1  0  0  0  0
  5  6  1  0  0  0  0
  6 40  1  0  0  0  0
  6  8  1  0  0  0  0
  6  7  1  0  0  0  0
  9 11  1  0  0  0  0
  9 10  1  0  0  0  0
  9  8  1  0  0  0  0
 11 12  1  0  0  0  0
 11 13  1  0  0  0  0
 11 14  1  0  0  0  0
 13 49  1  0  0  0  0
 14 15  1  0  0  0  0
 14 16  1  0  0  0  0
 14 17  1  0  0  0  0
 16 50  1  0  0  0  0
 16 51  1  0  0  0  0
 17 18  1  0  0  0  0
 17 52  1  0  0  0  0
 17 53  1  0  0  0  0
 18 19  1  0  0  0  0
 18 20  1  0  0  0  0
 18 21  1  0  0  0  0
 20 54  1  0  0  0  0
 20 55  1  0  0  0  0
 21  9  1  0  0  0  0
 21 23  1  0  0  0  0
 21 22  1  0  0  0  0
 23 24  1  0  0  0  0
 24 25  1  0  0  0  0
 24 26  1  0  0  0  0
 24 37  1  0  0  0  0
 26 27  1  0  0  0  0
 27 28  1  0  0  0  0
 27 29  1  0  0  0  0
 27 31  1  0  0  0  0
 29 30  1  0  0  0  0
 29 56  1  0  0  0  0
 29 57  1  0  0  0  0
 30 58  1  0  0  0  0
 30 59  1  0  0  0  0
 31 33  1  0  0  0  0
 31 32  1  0  0  0  0
 33 60  1  0  0  0  0
 34 31  1  0  0  0  0
 34 35  1  0  0  0  0
 34 36  1  0  0  0  0
 36 61  1  0  0  0  0
 37 34  1  0  0  0  0
 37 39  1  0  0  0  0
 37 38  1  0  0  0  0
 39 62  1  0  0  0  0
 39 63  1  0  0  0  0
 40 41  1  0  0  0  0
 40 42  1  0  0  0  0
 40 43  1  0  0  0  0
 42 64  1  0  0  0  0
 43 44  1  0  0  0  0
 43 45  1  0  0  0  0
 45 65  1  0  0  0  0
M  END
>  <energy>
104.52278179803972

$$$$
