@<TRIPOS>MOLECULE
3GX2_SFG_A_301
 50 52 0 0 0
SMALL
GASTEIGER

@<TRIPOS>ATOM
      1 N          -1.2023   -6.5776   -2.5011 N.3     1  UNL1       -0.3184
      2 CA         -1.9552   -6.1190   -1.3340 C.3     1  UNL1        0.1033
      3 HA         -2.5953   -6.9328   -0.9793 H       1  UNL1        0.0574
      4 C          -2.9138   -5.0086   -1.7468 C.2     1  UNL1        0.3217
      5 O          -3.3622   -4.8684   -2.8778 O.2     1  UNL1       -0.2493
      6 OXT        -3.2602   -4.1760   -0.7315 O.3     1  UNL1       -0.4795
      7 C          -0.9663   -5.7442   -0.2307 C.3     1  UNL1       -0.0260
      8 C          -0.1977   -4.4466   -0.5385 C.3     1  UNL1       -0.0357
      9 C          -0.0075   -3.5171    0.6656 C.3     1  UNL1        0.0073
     10 H           0.7411   -3.9994    1.2995 H       1  UNL1        0.0459
     11 N          -1.2182   -3.3493    1.4748 N.3     1  UNL1       -0.3272
     12 C           0.4680   -2.1188    0.1977 C.3     1  UNL1       -0.0087
     13 C           1.9949   -1.9909    0.2547 C.3     1  UNL1        0.0911
     14 H           2.4326   -2.7428   -0.4078 H       1  UNL1        0.0624
     15 O           2.4237   -0.7066   -0.2270 O.3     1  UNL1       -0.3479
     16 C           2.3708    0.2365    0.8669 C.3     1  UNL1        0.1666
     17 H           3.2550    0.8831    0.8254 H       1  UNL1        0.0866
     18 C           2.2906   -0.6205    2.1365 C.3     1  UNL1        0.1285
     19 H           1.2916   -0.5820    2.5848 H       1  UNL1        0.0665
     20 C           2.5505   -2.0383    1.6631 C.3     1  UNL1        0.1114
     21 H           2.0807   -2.7592    2.3360 H       1  UNL1        0.0647
     22 O           3.9453   -2.3090    1.6081 O.3     1  UNL1       -0.3865
     23 O           3.2210   -0.2102    3.1144 O.3     1  UNL1       -0.3847
     24 N           1.1980    1.0838    0.6532 N.ar    1  UNL1       -0.2855
     25 C           0.6782    1.9709    1.5680 C.ar    1  UNL1        0.1004
     26 N          -0.4094    2.5483    1.0922 N.ar    1  UNL1       -0.2306
     27 C          -0.3602    2.3233   -0.2634 C.ar    1  UNL1        0.1473
     28 C          -1.1745    2.7610   -1.3212 C.ar    1  UNL1        0.1472
     29 N          -2.2384    3.6599   -1.1316 N.pl3   1  UNL1       -0.3413
     30 N          -0.8533    2.3289   -2.5750 N.ar    1  UNL1       -0.2188
     31 C           0.1884    1.4816   -2.7236 C.ar    1  UNL1        0.1205
     32 N           0.9151    0.8929   -1.7625 N.ar    1  UNL1       -0.2159
     33 C           0.6981    1.4753   -0.5706 C.ar    1  UNL1        0.1674
     34 H1         -1.0353   -5.8127   -3.1535 H       1  UNL1        0.1190
     35 H2         -1.7314   -7.2900   -2.9993 H       1  UNL1        0.1190
     36 HXT        -3.3500   -4.5870    0.1543 H       1  UNL1        0.2951
     37 H          -0.2416   -6.5553   -0.0573 H       1  UNL1        0.0286
     38 H          -1.5480   -5.7025    0.6955 H       1  UNL1        0.0286
     39 H           0.7960   -4.7268   -0.9157 H       1  UNL1        0.0281
     40 H          -0.6527   -3.8863   -1.3615 H       1  UNL1        0.0281
     41 H          -1.0598   -2.6359    2.1874 H       1  UNL1        0.1185
     42 H          -1.3954   -4.2047    2.0004 H       1  UNL1        0.1185
     43 H           0.1331   -1.9039   -0.8261 H       1  UNL1        0.0306
     44 H          -0.0080   -1.3401    0.8058 H       1  UNL1        0.0306
     45 H           4.0950   -2.9419    0.8843 H       1  UNL1        0.2100
     46 H           2.8418   -0.4634    3.9725 H       1  UNL1        0.2101
     47 H           0.9505    1.9446    2.6156 H       1  UNL1        0.1030
     48 H          -2.7892    3.7298   -1.9860 H       1  UNL1        0.1438
     49 H          -1.8836    4.5853   -0.8972 H       1  UNL1        0.1438
     50 H           0.3828    1.1441   -3.7347 H       1  UNL1        0.1048
@<TRIPOS>BOND
     1     2     1    1
     2     2     3    1
     3     4     2    1
     4     5     4    2
     5     6     4    1
     6     7     2    1
     7     8     7    1
     8     9     8    1
     9     9    10    1
    10    11     9    1
    11    12     9    1
    12    13    12    1
    13    13    14    1
    14    15    13    1
    15    16    15    1
    16    16    17    1
    17    18    16    1
    18    18    19    1
    19    20    18    1
    20    20    21    1
    21    20    13    1
    22    22    20    1
    23    23    18    1
    24    24    16    1
    25    25    24   ar
    26    26    25   ar
    27    27    26   ar
    28    28    27   ar
    29    29    28    1
    30    30    28   ar
    31    31    30   ar
    32    32    31   ar
    33    33    32   ar
    34    33    24   ar
    35    33    27   ar
    36     1    34    1
    37     1    35    1
    38     6    36    1
    39     7    37    1
    40     7    38    1
    41     8    39    1
    42     8    40    1
    43    11    41    1
    44    11    42    1
    45    12    43    1
    46    12    44    1
    47    22    45    1
    48    23    46    1
    49    25    47    1
    50    29    48    1
    51    29    49    1
    52    31    50    1
