REMARK  13 active torsions:
REMARK  status: ('A' for Active; 'I' for Inactive)
REMARK    1  A    between atoms: CA_2  and  N_1 
REMARK    2  A    between atoms: C_3  and  CA_2 
REMARK    3  A    between atoms: C_6  and  CA_2 
REMARK    4  A    between atoms: OXT_5  and  C_3 
REMARK    5  A    between atoms: C_7  and  C_6 
REMARK    6  A    between atoms: C_8  and  C_7 
REMARK    7  A    between atoms: N_9  and  C_8 
REMARK    8  A    between atoms: C_10  and  C_8 
REMARK    9  A    between atoms: C_11  and  C_10 
REMARK   10  A    between atoms: N_18  and  C_13 
REMARK   11  A    between atoms: O_17  and  C_14 
REMARK   12  A    between atoms: O_16  and  C_15 
REMARK   13  A    between atoms: N_23  and  C_22 
ROOT
ATOM      1  C   UNL d   1       1.995  -1.991   0.255  0.00  0.00     0.157 C 
ATOM      2  O   UNL d   1       2.424  -0.707  -0.227  0.00  0.00    -0.355 OA
ATOM      3  C   UNL d   1       2.371   0.236   0.867  0.00  0.00     0.262 C 
ATOM      4  C   UNL d   1       2.291  -0.621   2.136  0.00  0.00     0.198 C 
ATOM      5  C   UNL d   1       2.550  -2.038   1.663  0.00  0.00     0.180 C 
ENDROOT
BRANCH   1   6
ATOM      6  C   UNL d   1       0.468  -2.119   0.198  0.00  0.00     0.070 C 
BRANCH   6   7
ATOM      7  C   UNL d   1      -0.007  -3.517   0.666  0.00  0.00     0.220 C 
BRANCH   7   8
ATOM      8  C   UNL d   1      -0.198  -4.447  -0.538  0.00  0.00     0.038 C 
BRANCH   8   9
ATOM      9  C   UNL d   1      -0.966  -5.744  -0.231  0.00  0.00     0.049 C 
BRANCH   9  10
ATOM     10  CA  UNL d   1      -1.955  -6.119  -1.334  0.00  0.00     0.314 C 
BRANCH  10  11
ATOM     11  N   UNL d   1      -1.202  -6.578  -2.501  0.00  0.00     0.093 N 
ATOM     12  H1  UNL d   1      -1.035  -5.813  -3.154  0.00  0.00     0.314 HD
ATOM     13  H2  UNL d   1      -1.731  -7.290  -2.999  0.00  0.00     0.314 HD
ENDBRANCH  10  11
BRANCH  10  14
ATOM     14  C   UNL d   1      -2.914  -5.009  -1.747  0.00  0.00     0.173 C 
ATOM     15  O   UNL d   1      -3.362  -4.868  -2.878  0.00  0.00    -0.648 OA
BRANCH  14  16
ATOM     16  OXT UNL d   1      -3.260  -4.176  -0.732  0.00  0.00    -0.775 OA
ATOM     17  HXT UNL d   1      -3.350  -4.587   0.154  0.00  0.00     0.167 HD
ENDBRANCH  14  16
ENDBRANCH  10  14
ENDBRANCH   9  10
ENDBRANCH   8   9
ENDBRANCH   7   8
BRANCH   7  18
ATOM     18  N   UNL d   1      -1.218  -3.349   1.475  0.00  0.00     0.083 N 
ATOM     19  H   UNL d   1      -1.060  -2.636   2.187  0.00  0.00     0.313 HD
ATOM     20  H   UNL d   1      -1.395  -4.205   2.000  0.00  0.00     0.313 HD
ENDBRANCH   7  18
ENDBRANCH   6   7
ENDBRANCH   1   6
BRANCH   5  21
ATOM     21  O   UNL d   1       3.945  -2.309   1.608  0.00  0.00    -0.390 OA
ATOM     22  H   UNL d   1       4.095  -2.942   0.884  0.00  0.00     0.210 HD
ENDBRANCH   5  21
BRANCH   3  23
ATOM     23  N   UNL d   1       1.198   1.084   0.653  0.00  0.00    -0.294 N 
ATOM     24  C   UNL d   1       0.678   1.971   1.568  0.00  0.00     0.214 C 
ATOM     25  N   UNL d   1      -0.409   2.548   1.092  0.00  0.00    -0.236 NA
ATOM     26  C   UNL d   1      -0.360   2.323  -0.263  0.00  0.00     0.144 C 
ATOM     27  C   UNL d   1      -1.175   2.761  -1.321  0.00  0.00     0.135 C 
ATOM     28  C   UNL d   1       0.698   1.475  -0.571  0.00  0.00     0.166 C 
ATOM     29  N   UNL d   1      -0.853   2.329  -2.575  0.00  0.00    -0.228 NA
ATOM     30  C   UNL d   1       0.188   1.482  -2.724  0.00  0.00     0.237 C 
ATOM     31  N   UNL d   1       0.915   0.893  -1.762  0.00  0.00    -0.222 NA
BRANCH  27  32
ATOM     32  N   UNL d   1      -2.238   3.660  -1.132  0.00  0.00    -0.285 NA
ATOM     33  H   UNL d   1      -2.789   3.730  -1.986  0.00  0.00     0.125 HD
ATOM     34  H   UNL d   1      -1.884   4.585  -0.897  0.00  0.00     0.125 HD
ENDBRANCH  27  32
ENDBRANCH   3  23
BRANCH   4  35
ATOM     35  O   UNL d   1       3.221  -0.210   3.114  0.00  0.00    -0.388 OA
ATOM     36  H   UNL d   1       2.842  -0.463   3.973  0.00  0.00     0.210 HD
ENDBRANCH   4  35
TORSDOF 13
