@<TRIPOS>MOLECULE
ligands/ligand.pdb
 42 45 0 0 0
SMALL
GASTEIGER

@<TRIPOS>ATOM
      1 O          12.0010   -2.7510   -1.6080 O.3     1  UNL1       -0.2176
      2 C          10.6460   -2.6310   -2.0170 C.3     1  UNL1        0.2141
      3 C           9.7490   -3.4420   -1.0810 C.3     1  UNL1        0.1804
      4 O           9.2440   -2.6270   -0.0010 O.3     1  UNL1       -0.3257
      5 C           8.5240   -4.0200   -1.7700 C.3     1  UNL1        0.1827
      6 C           7.6350   -4.2960   -0.5690 C.3     1  UNL1        0.2373
      7 O           8.0730   -5.4780    0.0920 O.3     1  UNL1       -0.2150
      8 C           7.9010   -3.0670    0.3240 C.3     1  UNL1        0.2694
      9 C           8.5310   -6.1500   -6.0230 C.3     1  UNL1        0.1696
     10 O           8.9840   -6.1850   -4.6610 O.3     1  UNL1       -0.3276
     11 C           8.3260   -5.1950   -3.8500 C.3     1  UNL1        0.2561
     12 O           8.8450   -5.2180   -2.5040 O.3     1  UNL1       -0.3265
     13 C           6.8050   -5.4250   -3.8400 C.3     1  UNL1        0.1807
     14 N           6.4580   -6.5360   -2.9730 N.3     1  UNL1       -0.1248
     15 C           6.2210   -5.6350   -5.2420 C.3     1  UNL1        0.2070
     16 O           6.1090   -4.3820   -5.8980 O.3     1  UNL1       -0.2186
     17 C           7.0710   -6.5800   -6.0870 C.3     1  UNL1        0.2122
     18 O           6.9320   -7.9140   -5.6120 O.3     1  UNL1       -0.2177
     19 C           9.4000   -7.0450   -6.9020 C.3     1  UNL1        0.1415
     20 N          10.8060   -6.7980   -6.6430 N.3     1  UNL1       -0.1286
     21 C           7.4070    3.0210    3.0580 C.3     1  UNL1        0.1696
     22 O           8.5740    2.1870    2.9010 O.3     1  UNL1       -0.3276
     23 C           8.2660    0.7750    2.8480 C.3     1  UNL1        0.2561
     24 O           7.4990    0.4300    1.6680 O.3     1  UNL1       -0.3278
     25 C           7.5440    0.3310    4.1260 C.3     1  UNL1        0.1807
     26 N           7.0560   -1.0270    3.9730 N.3     1  UNL1       -0.1248
     27 C           6.3740    1.2490    4.4620 C.3     1  UNL1        0.2070
     28 O           5.8880    0.9480    5.7610 O.3     1  UNL1       -0.2186
     29 C           6.7290    2.7260    4.3860 C.3     1  UNL1        0.2122
     30 O           5.5610    3.5220    4.5230 O.3     1  UNL1       -0.2177
     31 C           7.8130    4.4920    3.0620 C.3     1  UNL1        0.1415
     32 N           8.9710    4.7080    2.2140 N.3     1  UNL1       -0.1286
     33 C           8.8650    0.1910   -2.3540 C.3     1  UNL1        0.1261
     34 C           9.8410    0.6710   -1.2980 C.3     1  UNL1        0.0433
     35 C           9.1020    1.0760   -0.0360 C.3     1  UNL1        0.1230
     36 C           8.3250   -0.0830    0.5900 C.3     1  UNL1        0.1649
     37 C           7.4390   -0.7880   -0.4630 C.3     1  UNL1        0.1779
     38 C           8.0660   -1.0020   -1.8470 C.3     1  UNL1        0.1989
     39 N           9.5950   -0.1840   -3.5500 N.3     1  UNL1       -0.1301
     40 N          10.0530    1.6230    0.9120 N.3     1  UNL1       -0.1302
     41 O           6.9090   -2.0390    0.0400 O.3     1  UNL1       -0.3258
     42 O           7.0520   -1.3360   -2.7890 O.3     1  UNL1       -0.2189
@<TRIPOS>BOND
     1     1     2    1
     2     3     4    1
     3     3     5    1
     4     3     2    1
     5     4     8    1
     6     5     6    1
     7     5    12    1
     8     6     7    1
     9     6     8    1
    10     8    41    1
    11     9    10    1
    12     9    17    1
    13     9    19    1
    14    10    11    1
    15    11    12    1
    16    11    13    1
    17    13    14    1
    18    13    15    1
    19    15    16    1
    20    15    17    1
    21    17    18    1
    22    19    20    1
    23    21    22    1
    24    21    29    1
    25    21    31    1
    26    22    23    1
    27    23    24    1
    28    23    25    1
    29    25    26    1
    30    25    27    1
    31    27    28    1
    32    27    29    1
    33    29    30    1
    34    31    32    1
    35    33    34    1
    36    33    38    1
    37    33    39    1
    38    34    35    1
    39    35    36    1
    40    35    40    1
    41    36    37    1
    42    36    24    1
    43    37    38    1
    44    37    41    1
    45    38    42    1
