ligands/ligand.pdb
 OpenBabel10091713573D

 88 91  0  0  1  0  0  0  0  0999 V2000
   12.0010   -2.7510   -1.6080 O   0  0  0  0  0  0  0  0  0  0  0  0
   10.6460   -2.6310   -2.0170 C   0  0  0  0  0  0  0  0  0  0  0  0
    9.7490   -3.4420   -1.0810 C   0  0  1  0  0  0  0  0  0  0  0  0
    9.2440   -2.6270   -0.0010 O   0  0  0  0  0  0  0  0  0  0  0  0
    8.5240   -4.0200   -1.7700 C   0  0  2  0  0  0  0  0  0  0  0  0
    7.6350   -4.2960   -0.5690 C   0  0  1  0  0  0  0  0  0  0  0  0
    8.0730   -5.4780    0.0920 O   0  0  0  0  0  0  0  0  0  0  0  0
    7.9010   -3.0670    0.3240 C   0  0  2  0  0  0  0  0  0  0  0  0
    8.5310   -6.1500   -6.0230 C   0  0  2  0  0  0  0  0  0  0  0  0
    8.9840   -6.1850   -4.6610 O   0  0  0  0  0  0  0  0  0  0  0  0
    8.3260   -5.1950   -3.8500 C   0  0  2  0  0  0  0  0  0  0  0  0
    8.8450   -5.2180   -2.5040 O   0  0  0  0  0  0  0  0  0  0  0  0
    6.8050   -5.4250   -3.8400 C   0  0  2  0  0  0  0  0  0  0  0  0
    6.4580   -6.5360   -2.9730 N   0  0  0  0  0  0  0  0  0  0  0  0
    6.2210   -5.6350   -5.2420 C   0  0  1  0  0  0  0  0  0  0  0  0
    6.1090   -4.3820   -5.8980 O   0  0  0  0  0  0  0  0  0  0  0  0
    7.0710   -6.5800   -6.0870 C   0  0  2  0  0  0  0  0  0  0  0  0
    6.9320   -7.9140   -5.6120 O   0  0  0  0  0  0  0  0  0  0  0  0
    9.4000   -7.0450   -6.9020 C   0  0  0  0  0  0  0  0  0  0  0  0
   10.8060   -6.7980   -6.6430 N   0  0  0  0  0  0  0  0  0  0  0  0
    7.4070    3.0210    3.0580 C   0  0  1  0  0  0  0  0  0  0  0  0
    8.5740    2.1870    2.9010 O   0  0  0  0  0  0  0  0  0  0  0  0
    8.2660    0.7750    2.8480 C   0  0  2  0  0  0  0  0  0  0  0  0
    7.4990    0.4300    1.6680 O   0  0  0  0  0  0  0  0  0  0  0  0
    7.5440    0.3310    4.1260 C   0  0  2  0  0  0  0  0  0  0  0  0
    7.0560   -1.0270    3.9730 N   0  0  0  0  0  0  0  0  0  0  0  0
    6.3740    1.2490    4.4620 C   0  0  1  0  0  0  0  0  0  0  0  0
    5.8880    0.9480    5.7610 O   0  0  0  0  0  0  0  0  0  0  0  0
    6.7290    2.7260    4.3860 C   0  0  2  0  0  0  0  0  0  0  0  0
    5.5610    3.5220    4.5230 O   0  0  0  0  0  0  0  0  0  0  0  0
    7.8130    4.4920    3.0620 C   0  0  0  0  0  0  0  0  0  0  0  0
    8.9710    4.7080    2.2140 N   0  0  0  0  0  0  0  0  0  0  0  0
    8.8650    0.1910   -2.3540 C   0  0  2  0  0  0  0  0  0  0  0  0
    9.8410    0.6710   -1.2980 C   0  0  0  0  0  0  0  0  0  0  0  0
    9.1020    1.0760   -0.0360 C   0  0  1  0  0  0  0  0  0  0  0  0
    8.3250   -0.0830    0.5900 C   0  0  2  0  0  0  0  0  0  0  0  0
    7.4390   -0.7880   -0.4630 C   0  0  1  0  0  0  0  0  0  0  0  0
    8.0660   -1.0020   -1.8470 C   0  0  1  0  0  0  0  0  0  0  0  0
    9.5950   -0.1840   -3.5500 N   0  0  0  0  0  0  0  0  0  0  0  0
   10.0530    1.6230    0.9120 N   0  0  0  0  0  0  0  0  0  0  0  0
    6.9090   -2.0390    0.0400 O   0  0  0  0  0  0  0  0  0  0  0  0
    7.0520   -1.3360   -2.7890 O   0  0  0  0  0  0  0  0  0  0  0  0
   12.5657   -2.2351   -2.2045 H   0  0  0  0  0  0  0  0  0  0  0  0
   10.5425   -2.9997   -3.0161 H   0  0  0  0  0  0  0  0  0  0  0  0
   10.3557   -1.6018   -1.9808 H   0  0  0  0  0  0  0  0  0  0  0  0
   10.3788   -4.2324   -0.7295 H   0  0  0  0  0  0  0  0  0  0  0  0
    8.0786   -3.3851   -2.5072 H   0  0  0  0  0  0  0  0  0  0  0  0
    6.6034   -4.4394   -0.8140 H   0  0  0  0  0  0  0  0  0  0  0  0
    9.0085   -5.3867    0.3316 H   0  0  0  0  0  0  0  0  0  0  0  0
    7.8251   -3.2891    1.3679 H   0  0  0  0  0  0  0  0  0  0  0  0
    8.6133   -5.1495   -6.3933 H   0  0  0  0  0  0  0  0  0  0  0  0
    8.5198   -4.2320   -4.2741 H   0  0  0  0  0  0  0  0  0  0  0  0
    6.3659   -4.5285   -3.4548 H   0  0  0  0  0  0  0  0  0  0  0  0
    6.8743   -7.3935   -3.3360 H   0  0  0  0  0  0  0  0  0  0  0  0
    5.4436   -6.6379   -2.9404 H   0  0  0  0  0  0  0  0  0  0  0  0
    5.2570   -6.0851   -5.1280 H   0  0  0  0  0  0  0  0  0  0  0  0
    6.9899   -3.9873   -5.9937 H   0  0  0  0  0  0  0  0  0  0  0  0
    6.7388   -6.5405   -7.1034 H   0  0  0  0  0  0  0  0  0  0  0  0
    7.2306   -7.9618   -4.6903 H   0  0  0  0  0  0  0  0  0  0  0  0
    9.1898   -6.8395   -7.9308 H   0  0  0  0  0  0  0  0  0  0  0  0
    9.1809   -8.0682   -6.6787 H   0  0  0  0  0  0  0  0  0  0  0  0
   11.0245   -5.8241   -6.8532 H   0  0  0  0  0  0  0  0  0  0  0  0
   11.3726   -7.4083   -7.2320 H   0  0  0  0  0  0  0  0  0  0  0  0
    6.7413    2.8178    2.2453 H   0  0  0  0  0  0  0  0  0  0  0  0
    9.1938    0.2461    2.7824 H   0  0  0  0  0  0  0  0  0  0  0  0
    8.2505    0.3803    4.9280 H   0  0  0  0  0  0  0  0  0  0  0  0
    6.3839   -1.0624    3.2066 H   0  0  0  0  0  0  0  0  0  0  0  0
    6.6026   -1.3247    4.8368 H   0  0  0  0  0  0  0  0  0  0  0  0
    5.6205    1.0694    3.7238 H   0  0  0  0  0  0  0  0  0  0  0  0
    6.5849    1.1172    6.4142 H   0  0  0  0  0  0  0  0  0  0  0  0
    7.3993    2.9639    5.1854 H   0  0  0  0  0  0  0  0  0  0  0  0
    4.9434    3.3164    3.8038 H   0  0  0  0  0  0  0  0  0  0  0  0
    8.0504    4.7879    4.0625 H   0  0  0  0  0  0  0  0  0  0  0  0
    6.9981    5.0743    2.6856 H   0  0  0  0  0  0  0  0  0  0  0  0
    9.7555    4.1574    2.5631 H   0  0  0  0  0  0  0  0  0  0  0  0
    9.2192    5.6973    2.2230 H   0  0  0  0  0  0  0  0  0  0  0  0
    8.1837    0.9850   -2.5784 H   0  0  0  0  0  0  0  0  0  0  0  0
   10.3816    1.5138   -1.6753 H   0  0  0  0  0  0  0  0  0  0  0  0
   10.5161   -0.1253   -1.0632 H   0  0  0  0  0  0  0  0  0  0  0  0
    8.3762    1.8163   -0.3007 H   0  0  0  0  0  0  0  0  0  0  0  0
    9.0201   -0.8015    0.9714 H   0  0  0  0  0  0  0  0  0  0  0  0
    6.6483   -0.0856   -0.6251 H   0  0  0  0  0  0  0  0  0  0  0  0
    8.7629   -1.8067   -1.7387 H   0  0  0  0  0  0  0  0  0  0  0  0
   10.2424   -0.9408   -3.3299 H   0  0  0  0  0  0  0  0  0  0  0  0
   10.1177    0.6208   -3.8957 H   0  0  0  0  0  0  0  0  0  0  0  0
   10.7388    0.9086    1.1562 H   0  0  0  0  0  0  0  0  0  0  0  0
    9.5603    1.9230    1.7532 H   0  0  0  0  0  0  0  0  0  0  0  0
    6.4316   -0.5950   -2.8726 H   0  0  0  0  0  0  0  0  0  0  0  0
  1  2  1  0  0  0  0
  1 43  1  0  0  0  0
  2 44  1  0  0  0  0
  2 45  1  0  0  0  0
  3  4  1  0  0  0  0
  3  5  1  0  0  0  0
  3  2  1  0  0  0  0
  3 46  1  1  0  0  0
  4  8  1  0  0  0  0
  5  6  1  0  0  0  0
  5 12  1  0  0  0  0
  5 47  1  6  0  0  0
  6  7  1  0  0  0  0
  6  8  1  0  0  0  0
  6 48  1  6  0  0  0
  7 49  1  0  0  0  0
  8 41  1  0  0  0  0
  8 50  1  1  0  0  0
  9 10  1  0  0  0  0
  9 17  1  0  0  0  0
  9 19  1  0  0  0  0
  9 51  1  6  0  0  0
 10 11  1  0  0  0  0
 11 12  1  0  0  0  0
 11 13  1  0  0  0  0
 11 52  1  6  0  0  0
 13 14  1  0  0  0  0
 13 15  1  0  0  0  0
 13 53  1  1  0  0  0
 14 54  1  0  0  0  0
 14 55  1  0  0  0  0
 15 16  1  0  0  0  0
 15 17  1  0  0  0  0
 15 56  1  1  0  0  0
 16 57  1  0  0  0  0
 17 18  1  0  0  0  0
 17 58  1  6  0  0  0
 18 59  1  0  0  0  0
 19 20  1  0  0  0  0
 19 60  1  0  0  0  0
 19 61  1  0  0  0  0
 20 62  1  0  0  0  0
 20 63  1  0  0  0  0
 21 22  1  0  0  0  0
 21 29  1  0  0  0  0
 21 31  1  0  0  0  0
 21 64  1  6  0  0  0
 22 23  1  0  0  0  0
 23 24  1  0  0  0  0
 23 25  1  0  0  0  0
 23 65  1  6  0  0  0
 25 26  1  0  0  0  0
 25 27  1  0  0  0  0
 25 66  1  1  0  0  0
 26 67  1  0  0  0  0
 26 68  1  0  0  0  0
 27 28  1  0  0  0  0
 27 29  1  0  0  0  0
 27 69  1  6  0  0  0
 28 70  1  0  0  0  0
 29 30  1  0  0  0  0
 29 71  1  1  0  0  0
 30 72  1  0  0  0  0
 31 32  1  0  0  0  0
 31 73  1  0  0  0  0
 31 74  1  0  0  0  0
 32 75  1  0  0  0  0
 32 76  1  0  0  0  0
 33 34  1  0  0  0  0
 33 38  1  0  0  0  0
 33 39  1  0  0  0  0
 33 77  1  6  0  0  0
 34 35  1  0  0  0  0
 34 78  1  0  0  0  0
 34 79  1  0  0  0  0
 35 36  1  0  0  0  0
 35 40  1  0  0  0  0
 35 80  1  6  0  0  0
 36 37  1  0  0  0  0
 36 24  1  0  0  0  0
 36 81  1  1  0  0  0
 37 38  1  0  0  0  0
 37 41  1  0  0  0  0
 37 82  1  6  0  0  0
 38 42  1  0  0  0  0
 38 83  1  1  0  0  0
 39 84  1  0  0  0  0
 39 85  1  0  0  0  0
 40 86  1  0  0  0  0
 40 87  1  0  0  0  0
 42 88  1  0  0  0  0
M  END
>  <HEADER>
Generated with yapdb_parser, version: unknown (https://github.com/m4rx9/rna-pdb-tools) Wed Jan 27 17:52:27 2016

$$$$
