ligands/ligand.pdb
 OpenBabel10091713573D

 42 45  0  0  1  0  0  0  0  0999 V2000
   12.0010   -2.7510   -1.6080 O   0  0  0  0  0  0  0  0  0  0  0  0
   10.6460   -2.6310   -2.0170 C   0  0  0  0  0  0  0  0  0  0  0  0
    9.7490   -3.4420   -1.0810 C   0  0  1  0  0  0  0  0  0  0  0  0
    9.2440   -2.6270   -0.0010 O   0  0  0  0  0  0  0  0  0  0  0  0
    8.5240   -4.0200   -1.7700 C   0  0  2  0  0  0  0  0  0  0  0  0
    7.6350   -4.2960   -0.5690 C   0  0  1  0  0  0  0  0  0  0  0  0
    8.0730   -5.4780    0.0920 O   0  0  0  0  0  0  0  0  0  0  0  0
    7.9010   -3.0670    0.3240 C   0  0  2  0  0  0  0  0  0  0  0  0
    8.5310   -6.1500   -6.0230 C   0  0  2  0  0  0  0  0  0  0  0  0
    8.9840   -6.1850   -4.6610 O   0  0  0  0  0  0  0  0  0  0  0  0
    8.3260   -5.1950   -3.8500 C   0  0  2  0  0  0  0  0  0  0  0  0
    8.8450   -5.2180   -2.5040 O   0  0  0  0  0  0  0  0  0  0  0  0
    6.8050   -5.4250   -3.8400 C   0  0  2  0  0  0  0  0  0  0  0  0
    6.4580   -6.5360   -2.9730 N   0  0  0  0  0  0  0  0  0  0  0  0
    6.2210   -5.6350   -5.2420 C   0  0  1  0  0  0  0  0  0  0  0  0
    6.1090   -4.3820   -5.8980 O   0  0  0  0  0  0  0  0  0  0  0  0
    7.0710   -6.5800   -6.0870 C   0  0  2  0  0  0  0  0  0  0  0  0
    6.9320   -7.9140   -5.6120 O   0  0  0  0  0  0  0  0  0  0  0  0
    9.4000   -7.0450   -6.9020 C   0  0  0  0  0  0  0  0  0  0  0  0
   10.8060   -6.7980   -6.6430 N   0  0  0  0  0  0  0  0  0  0  0  0
    7.4070    3.0210    3.0580 C   0  0  1  0  0  0  0  0  0  0  0  0
    8.5740    2.1870    2.9010 O   0  0  0  0  0  0  0  0  0  0  0  0
    8.2660    0.7750    2.8480 C   0  0  2  0  0  0  0  0  0  0  0  0
    7.4990    0.4300    1.6680 O   0  0  0  0  0  0  0  0  0  0  0  0
    7.5440    0.3310    4.1260 C   0  0  2  0  0  0  0  0  0  0  0  0
    7.0560   -1.0270    3.9730 N   0  0  0  0  0  0  0  0  0  0  0  0
    6.3740    1.2490    4.4620 C   0  0  1  0  0  0  0  0  0  0  0  0
    5.8880    0.9480    5.7610 O   0  0  0  0  0  0  0  0  0  0  0  0
    6.7290    2.7260    4.3860 C   0  0  2  0  0  0  0  0  0  0  0  0
    5.5610    3.5220    4.5230 O   0  0  0  0  0  0  0  0  0  0  0  0
    7.8130    4.4920    3.0620 C   0  0  0  0  0  0  0  0  0  0  0  0
    8.9710    4.7080    2.2140 N   0  0  0  0  0  0  0  0  0  0  0  0
    8.8650    0.1910   -2.3540 C   0  0  2  0  0  0  0  0  0  0  0  0
    9.8410    0.6710   -1.2980 C   0  0  0  0  0  0  0  0  0  0  0  0
    9.1020    1.0760   -0.0360 C   0  0  1  0  0  0  0  0  0  0  0  0
    8.3250   -0.0830    0.5900 C   0  0  2  0  0  0  0  0  0  0  0  0
    7.4390   -0.7880   -0.4630 C   0  0  1  0  0  0  0  0  0  0  0  0
    8.0660   -1.0020   -1.8470 C   0  0  1  0  0  0  0  0  0  0  0  0
    9.5950   -0.1840   -3.5500 N   0  0  0  0  0  0  0  0  0  0  0  0
   10.0530    1.6230    0.9120 N   0  0  0  0  0  0  0  0  0  0  0  0
    6.9090   -2.0390    0.0400 O   0  0  0  0  0  0  0  0  0  0  0  0
    7.0520   -1.3360   -2.7890 O   0  0  0  0  0  0  0  0  0  0  0  0
  1  2  1  0  0  0  0
  3  4  1  0  0  0  0
  3  5  1  0  0  0  0
  3  2  1  6  0  0  0
  4  8  1  0  0  0  0
  5  6  1  0  0  0  0
  5 12  1  1  0  0  0
  6  7  1  1  0  0  0
  6  8  1  0  0  0  0
  8 41  1  6  0  0  0
  9 10  1  0  0  0  0
  9 17  1  0  0  0  0
  9 19  1  6  0  0  0
 10 11  1  0  0  0  0
 11 12  1  1  0  0  0
 11 13  1  0  0  0  0
 13 14  1  1  0  0  0
 13 15  1  0  0  0  0
 15 16  1  6  0  0  0
 15 17  1  0  0  0  0
 17 18  1  1  0  0  0
 19 20  1  0  0  0  0
 21 22  1  0  0  0  0
 21 29  1  0  0  0  0
 21 31  1  1  0  0  0
 22 23  1  0  0  0  0
 23 24  1  6  0  0  0
 23 25  1  0  0  0  0
 25 26  1  6  0  0  0
 25 27  1  0  0  0  0
 27 28  1  1  0  0  0
 27 29  1  0  0  0  0
 29 30  1  6  0  0  0
 31 32  1  0  0  0  0
 33 34  1  0  0  0  0
 33 38  1  0  0  0  0
 33 39  1  6  0  0  0
 34 35  1  0  0  0  0
 35 36  1  0  0  0  0
 35 40  1  1  0  0  0
 36 37  1  0  0  0  0
 36 24  1  1  0  0  0
 37 38  1  0  0  0  0
 37 41  1  1  0  0  0
 38 42  1  6  0  0  0
M  END
>  <HEADER>
Generated with yapdb_parser, version: unknown (https://github.com/m4rx9/rna-pdb-tools) Wed Jan 27 17:52:27 2016

$$$$
