REMARK  8 active torsions:
REMARK  status: ('A' for Active; 'I' for Inactive)
REMARK    1  A    between atoms: C_7  and  C_9 
REMARK    2  A    between atoms: C_9  and  N_10 
REMARK    3  A    between atoms: C_13  and  C_16 
REMARK    4  A    between atoms: C_16  and  C_17 
REMARK    5  A    between atoms: C_17  and  O_18 
REMARK    6  A    between atoms: O_18  and  P_19 
REMARK    7  A    between atoms: P_19  and  O_22 
REMARK    8  A    between atoms: O_22  and  P_23 
ROOT
ATOM      1  N   UNL d   1      -4.695 -16.081  21.407  0.00  0.00    -0.320 N 
ATOM      2  C   UNL d   1      -3.947 -16.953  20.661  0.00  0.00     0.113 A 
ATOM      3  S   UNL d   1      -3.857 -16.561  19.121  0.00  0.00    -0.071 SA
ATOM      4  C   UNL d   1      -4.761 -15.255  19.330  0.00  0.00     0.023 A 
ATOM      5  C   UNL d   1      -5.163 -15.063  20.645  0.00  0.00     0.040 A 
ATOM      6  C   UNL d   1      -6.010 -13.953  21.164  0.00  0.00     0.050 C 
ENDROOT
BRANCH   4   7
ATOM      7  C   UNL d   1      -4.971 -14.470  18.068  0.00  0.00     0.067 C 
BRANCH   7   8
ATOM      8  C   UNL d   1      -4.298 -13.086  18.159  0.00  0.00     0.160 C 
BRANCH   8   9
ATOM      9  O   UNL d   1      -2.894 -13.168  18.313  0.00  0.00    -0.270 OA
BRANCH   9  10
ATOM     10  P   UNL d   1      -2.051 -13.343  17.000  0.00  0.00     0.419 P 
ATOM     11  O   UNL d   1      -0.694 -13.626  17.301  0.00  0.00    -0.624 OA
ATOM     12  O   UNL d   1      -2.621 -14.459  16.185  0.00  0.00    -0.624 OA
BRANCH  10  13
ATOM     13  O   UNL d   1      -2.319 -11.990  16.147  0.00  0.00    -0.173 OA
BRANCH  13  14
ATOM     14  P   UNL d   1      -1.175 -11.176  15.369  0.00  0.00     0.431 P 
ATOM     15  O   UNL d   1      -1.782  -9.814  15.142  0.00  0.00    -0.616 OA
ATOM     16  O   UNL d   1      -0.708 -11.729  14.110  0.00  0.00    -0.616 OA
ATOM     17  O   UNL d   1       0.074 -11.181  16.147  0.00  0.00    -0.616 OA
ENDBRANCH  13  14
ENDBRANCH  10  13
ENDBRANCH   9  10
ENDBRANCH   8   9
ENDBRANCH   7   8
ENDBRANCH   4   7
BRANCH   1  18
ATOM     18  C   UNL d   1      -4.913 -16.221  22.818  0.00  0.00     0.138 C 
BRANCH  18  19
ATOM     19  C   UNL d   1      -6.362 -16.607  23.057  0.00  0.00     0.057 A 
ATOM     20  C   UNL d   1      -6.848 -16.640  24.351  0.00  0.00     0.184 A 
ATOM     21  N   UNL d   1      -8.151 -17.015  24.580  0.00  0.00    -0.211 NA
ATOM     22  N   UNL d   1      -6.033 -16.306  25.347  0.00  0.00    -0.127 N 
ATOM     23  C   UNL d   1      -8.963 -17.355  23.525  0.00  0.00     0.141 A 
ATOM     24  N   UNL d   1      -8.491 -17.320  22.239  0.00  0.00    -0.230 NA
ATOM     25  C   UNL d   1     -10.383 -17.739  23.770  0.00  0.00     0.074 C 
ATOM     26  C   UNL d   1      -7.191 -16.968  21.995  0.00  0.00     0.101 A 
ENDBRANCH  18  19
ENDBRANCH   1  18
TORSDOF 8
