3D2G_TPP_A_83
 OpenBabel10091713573D
Coordinates from PDB:3D2G:A:83 Model:1 without hydrogens
 45 46  0  0  0  0  0  0  0  0999 V2000
   -8.4910  -17.3200   22.2390 N   0  0  0  0  0  0  0  0  0  0  0  0
   -8.9630  -17.3550   23.5250 C   0  0  0  0  0  0  0  0  0  0  0  0
  -10.3830  -17.7390   23.7700 C   0  0  0  0  0  0  0  0  0  0  0  0
   -8.1510  -17.0150   24.5800 N   0  0  0  0  0  0  0  0  0  0  0  0
   -6.8480  -16.6400   24.3510 C   0  0  0  0  0  0  0  0  0  0  0  0
   -6.0330  -16.3060   25.3470 N   0  0  0  0  0  0  0  0  0  0  0  0
   -6.3620  -16.6070   23.0570 C   0  0  0  0  0  0  0  0  0  0  0  0
   -7.1910  -16.9680   21.9950 C   0  0  0  0  0  0  0  0  0  0  0  0
   -4.9130  -16.2210   22.8180 C   0  0  0  0  0  0  0  0  0  0  0  0
   -4.6950  -16.0810   21.4070 N   0  0  0  0  0  0  0  0  0  0  0  0
   -3.9470  -16.9530   20.6610 C   0  0  0  0  0  3  0  0  0  0  0  0
   -3.8570  -16.5610   19.1210 S   0  0  0  0  0  0  0  0  0  0  0  0
   -4.7610  -15.2550   19.3300 C   0  0  0  0  0  0  0  0  0  0  0  0
   -5.1630  -15.0630   20.6450 C   0  0  0  0  0  0  0  0  0  0  0  0
   -6.0100  -13.9530   21.1640 C   0  0  0  0  0  0  0  0  0  0  0  0
   -4.9710  -14.4700   18.0680 C   0  0  0  0  0  0  0  0  0  0  0  0
   -4.2980  -13.0860   18.1590 C   0  0  0  0  0  0  0  0  0  0  0  0
   -2.8940  -13.1680   18.3130 O   0  0  0  0  0  0  0  0  0  0  0  0
   -2.0510  -13.3430   17.0000 P   0  0  1  0  0  0  0  0  0  0  0  0
   -0.6940  -13.6260   17.3010 O   0  0  0  0  0  0  0  0  0  0  0  0
   -2.6210  -14.4590   16.1850 O   0  0  0  0  0  0  0  0  0  0  0  0
   -2.3190  -11.9900   16.1470 O   0  0  0  0  0  0  0  0  0  0  0  0
   -1.1750  -11.1760   15.3690 P   0  0  0  0  0  0  0  0  0  0  0  0
   -1.7820   -9.8140   15.1420 O   0  0  0  0  0  0  0  0  0  0  0  0
   -0.7080  -11.7290   14.1100 O   0  0  0  0  0  0  0  0  0  0  0  0
    0.0740  -11.1810   16.1470 O   0  0  0  0  0  0  0  0  0  0  0  0
  -10.8561  -17.9690   22.8383 H   0  0  0  0  0  0  0  0  0  0  0  0
  -10.8964  -16.9261   24.2396 H   0  0  0  0  0  0  0  0  0  0  0  0
  -10.4154  -18.5974   24.4080 H   0  0  0  0  0  0  0  0  0  0  0  0
   -6.3585  -16.3226   26.2760 H   0  0  0  0  0  0  0  0  0  0  0  0
   -5.1041  -16.0421   25.1555 H   0  0  0  0  0  0  0  0  0  0  0  0
   -6.8259  -16.9697   21.0297 H   0  0  0  0  0  0  0  0  0  0  0  0
   -4.2698  -16.9826   23.2068 H   0  0  0  0  0  0  0  0  0  0  0  0
   -4.6987  -15.2959   23.3110 H   0  0  0  0  0  0  0  0  0  0  0  0
   -3.4854  -17.7854   21.0598 H   0  0  0  0  0  0  0  0  0  0  0  0
   -6.1495  -14.0736   22.2180 H   0  0  0  0  0  0  0  0  0  0  0  0
   -6.9610  -13.9709   20.6740 H   0  0  0  0  0  0  0  0  0  0  0  0
   -5.5279  -13.0171   20.9728 H   0  0  0  0  0  0  0  0  0  0  0  0
   -6.0208  -14.3386   17.9084 H   0  0  0  0  0  0  0  0  0  0  0  0
   -4.5324  -15.0092   17.2545 H   0  0  0  0  0  0  0  0  0  0  0  0
   -4.7041  -12.5630   18.9995 H   0  0  0  0  0  0  0  0  0  0  0  0
   -4.4918  -12.5726   17.2405 H   0  0  0  0  0  0  0  0  0  0  0  0
   -2.4882  -15.2997   16.6503 H   0  0  0  0  0  0  0  0  0  0  0  0
   -1.4489  -11.7837   13.4863 H   0  0  0  0  0  0  0  0  0  0  0  0
   -0.0962  -10.8272   17.0340 H   0  0  0  0  0  0  0  0  0  0  0  0
  1  2  2  0  0  0  0
  1  8  1  0  0  0  0
  2  3  1  0  0  0  0
  2  4  1  0  0  0  0
  3 27  1  0  0  0  0
  3 28  1  0  0  0  0
  3 29  1  0  0  0  0
  4  5  2  0  0  0  0
  5  6  1  0  0  0  0
  5  7  1  0  0  0  0
  6 30  1  0  0  0  0
  6 31  1  0  0  0  0
  7  8  2  0  0  0  0
  7  9  1  0  0  0  0
  8 32  1  0  0  0  0
  9 10  1  0  0  0  0
  9 33  1  0  0  0  0
  9 34  1  0  0  0  0
 10 11  1  0  0  0  0
 10 14  1  0  0  0  0
 11 12  1  0  0  0  0
 11 35  1  0  0  0  0
 12 13  1  0  0  0  0
 13 14  2  0  0  0  0
 13 16  1  0  0  0  0
 14 15  1  0  0  0  0
 15 36  1  0  0  0  0
 15 37  1  0  0  0  0
 15 38  1  0  0  0  0
 16 17  1  0  0  0  0
 16 39  1  0  0  0  0
 16 40  1  0  0  0  0
 17 18  1  0  0  0  0
 17 41  1  0  0  0  0
 17 42  1  0  0  0  0
 18 19  1  0  0  0  0
 19 20  2  1  0  0  0
 19 21  1  0  0  0  0
 19 22  1  0  0  0  0
 21 43  1  0  0  0  0
 22 23  1  0  0  0  0
 23 24  2  0  0  0  0
 23 25  1  0  0  0  0
 23 26  1  0  0  0  0
 25 44  1  0  0  0  0
 26 45  1  0  0  0  0
M  END
$$$$
