3D2G_TPP_A_83
 OpenBabel10091713573D
Coordinates from PDB:3D2G:A:83 Model:1 without hydrogens
 26 27  0  0  0  0  0  0  0  0999 V2000
   -8.4910  -17.3200   22.2390 N   0  0  0  0  0  0  0  0  0  0  0  0
   -8.9630  -17.3550   23.5250 C   0  0  0  0  0  0  0  0  0  0  0  0
  -10.3830  -17.7390   23.7700 C   0  0  0  0  0  0  0  0  0  0  0  0
   -8.1510  -17.0150   24.5800 N   0  0  0  0  0  0  0  0  0  0  0  0
   -6.8480  -16.6400   24.3510 C   0  0  0  0  0  0  0  0  0  0  0  0
   -6.0330  -16.3060   25.3470 N   0  0  0  0  0  0  0  0  0  0  0  0
   -6.3620  -16.6070   23.0570 C   0  0  0  0  0  0  0  0  0  0  0  0
   -7.1910  -16.9680   21.9950 C   0  0  0  0  0  0  0  0  0  0  0  0
   -4.9130  -16.2210   22.8180 C   0  0  0  0  0  0  0  0  0  0  0  0
   -4.6950  -16.0810   21.4070 N   0  3  0  0  0  0  0  0  0  0  0  0
   -3.9470  -16.9530   20.6610 C   0  0  0  0  0  0  0  0  0  0  0  0
   -3.8570  -16.5610   19.1210 S   0  0  0  0  0  0  0  0  0  0  0  0
   -4.7610  -15.2550   19.3300 C   0  0  0  0  0  0  0  0  0  0  0  0
   -5.1630  -15.0630   20.6450 C   0  0  0  0  0  0  0  0  0  0  0  0
   -6.0100  -13.9530   21.1640 C   0  0  0  0  0  0  0  0  0  0  0  0
   -4.9710  -14.4700   18.0680 C   0  0  0  0  0  0  0  0  0  0  0  0
   -4.2980  -13.0860   18.1590 C   0  0  0  0  0  0  0  0  0  0  0  0
   -2.8940  -13.1680   18.3130 O   0  0  0  0  0  0  0  0  0  0  0  0
   -2.0510  -13.3430   17.0000 P   0  0  1  0  0  0  0  0  0  0  0  0
   -0.6940  -13.6260   17.3010 O   0  0  0  0  0  0  0  0  0  0  0  0
   -2.6210  -14.4590   16.1850 O   0  0  0  0  0  0  0  0  0  0  0  0
   -2.3190  -11.9900   16.1470 O   0  0  0  0  0  0  0  0  0  0  0  0
   -1.1750  -11.1760   15.3690 P   0  0  0  0  0  0  0  0  0  0  0  0
   -1.7820   -9.8140   15.1420 O   0  0  0  0  0  0  0  0  0  0  0  0
   -0.7080  -11.7290   14.1100 O   0  0  0  0  0  0  0  0  0  0  0  0
    0.0740  -11.1810   16.1470 O   0  0  0  0  0  0  0  0  0  0  0  0
  1  2  2  0  0  0  0
  1  8  1  0  0  0  0
  2  3  1  0  0  0  0
  2  4  1  0  0  0  0
  4  5  2  0  0  0  0
  5  6  1  0  0  0  0
  5  7  1  0  0  0  0
  7  8  2  0  0  0  0
  7  9  1  0  0  0  0
  9 10  1  0  0  0  0
 10 11  2  0  0  0  0
 10 14  1  0  0  0  0
 11 12  1  0  0  0  0
 12 13  1  0  0  0  0
 13 14  2  0  0  0  0
 13 16  1  0  0  0  0
 14 15  1  0  0  0  0
 16 17  1  0  0  0  0
 17 18  1  0  0  0  0
 18 19  1  0  0  0  0
 19 20  2  1  0  0  0
 19 21  1  0  0  0  0
 19 22  1  0  0  0  0
 22 23  1  0  0  0  0
 23 24  2  0  0  0  0
 23 25  1  0  0  0  0
 23 26  1  0  0  0  0
A    1
N1'
A    2
C2'
A    3
CM2
A    4
N3'
A    5
C4'
A    6
N4'
A    7
C5'
A    8
C6'
A    9
C7'
A   10
N3
A   11
C2
A   12
S1
A   13
C5
A   14
C4
A   15
CM4
A   16
C6
A   17
C7
A   18
O7
A   19
PA
A   20
O1A
A   21
O2A
A   22
O3A
A   23
PB
A   24
O1B
A   25
O2B
A   26
O3B
M  CHG  1  10   1
M  END
>  <InstanceId>
3D2G_TPP_A_83

>  <ChemCompId>
TPP

>  <PdbId>
3D2G

>  <ChainId>
A

>  <ResidueNumber>
83

>  <InsertionCode>


>  <Model>
1

>  <AltIds>


>  <MissingHeavyAtoms>
0

>  <ObservedFormula>
C12 N4 O7 P2 S

>  <Name>
THIAMINE DIPHOSPHATE

>  <SystematicName>
2-[3-[(4-amino-2-methyl-pyrimidin-5-yl)methyl]-4-methyl-1,3-thiazol-3-ium-5-yl]ethyl phosphono hydrogen phosphate

>  <Synonyms>


>  <Type>
NON-POLYMER

>  <Formula>
C12 H19 N4 O7 P2 S

>  <MolecularWeight>
425.314

>  <ModifiedDate>
2011-06-04

>  <Parent>


>  <OneLetterCode>


>  <SubcomponentList>


>  <AmbiguousFlag>
N

>  <InChI>
InChI=1S/C12H18N4O7P2S/c1-8-11(3-4-22-25(20,21)23-24(17,18)19)26-7-16(8)6-10-5-14-9(2)15-12(10)13/h5,7H,3-4,6H2,1-2H3,(H4-,13,14,15,17,18,19,20,21)/p+1

>  <InChIKey>
AYEKOFBPNLCAJY-UHFFFAOYSA-O

>  <SMILES>
Cc1c(sc[n+]1Cc2cnc(nc2N)C)CCO[P@](=O)(O)OP(=O)(O)O

$$$$
