@<TRIPOS>MOLECULE
3D2G_TPP_A_83
 26 27 0 0 0
SMALL
GASTEIGER
****
Coordinates from PDB:3D2G:A:83 Model:1 without hydrogens
@<TRIPOS>ATOM
      1 N          -8.4910  -17.3200   22.2390 N.ar    1  UNL1       -0.2292
      2 C          -8.9630  -17.3550   23.5250 C.ar    1  UNL1        0.1411
      3 C         -10.3830  -17.7390   23.7700 C.3     1  UNL1        0.0737
      4 N          -8.1510  -17.0150   24.5800 N.ar    1  UNL1       -0.2128
      5 C          -6.8480  -16.6400   24.3510 C.ar    1  UNL1        0.1750
      6 N          -6.0330  -16.3060   25.3470 N.pl3   1  UNL1       -0.1072
      7 C          -6.3620  -16.6070   23.0570 C.ar    1  UNL1        0.1094
      8 C          -7.1910  -16.9680   21.9950 C.ar    1  UNL1        0.1056
      9 C          -4.9130  -16.2210   22.8180 C.3     1  UNL1        0.3547
     10 N          -4.6950  -16.0810   21.4070 N.ar    1  UNL1       -0.1579
     11 C          -3.9470  -16.9530   20.6610 C.ar    1  UNL1        0.3279
     12 S          -3.8570  -16.5610   19.1210 S.2     1  UNL1       -0.0110
     13 C          -4.7610  -15.2550   19.3300 C.ar    1  UNL1        0.0743
     14 C          -5.1630  -15.0630   20.6450 C.ar    1  UNL1        0.2065
     15 C          -6.0100  -13.9530   21.1640 C.3     1  UNL1        0.1080
     16 C          -4.9710  -14.4700   18.0680 C.3     1  UNL1        0.0713
     17 C          -4.2980  -13.0860   18.1590 C.3     1  UNL1        0.1545
     18 O          -2.8940  -13.1680   18.3130 O.3     1  UNL1       -0.3134
     19 P          -2.0510  -13.3430   17.0000 P.3     1  UNL1        0.2230
     20 O          -0.6940  -13.6260   17.3010 O.2     1  UNL1       -0.5169
     21 O          -2.6210  -14.4590   16.1850 O.3     1  UNL1       -0.4370
     22 O          -2.3190  -11.9900   16.1470 O.3     1  UNL1       -0.2261
     23 P          -1.1750  -11.1760   15.3690 P.3     1  UNL1        0.5373
     24 O          -1.7820   -9.8140   15.1420 O.2     1  UNL1       -0.2221
     25 O          -0.7080  -11.7290   14.1100 O.3     1  UNL1       -0.1143
     26 O           0.0740  -11.1810   16.1470 O.3     1  UNL1       -0.1143
@<TRIPOS>BOND
     1     1     2   ar
     2     1     8   ar
     3     2     3    1
     4     2     4   ar
     5     4     5   ar
     6     5     6    1
     7     5     7   ar
     8     7     8   ar
     9     7     9    1
    10     9    10    1
    11    10    11   ar
    12    10    14   ar
    13    11    12   ar
    14    12    13   ar
    15    13    14   ar
    16    13    16    1
    17    14    15    1
    18    16    17    1
    19    17    18    1
    20    18    19    1
    21    19    20    2
    22    19    21    1
    23    19    22    1
    24    22    23    1
    25    23    24    2
    26    23    25    1
    27    23    26    1
