REMARK  22 active torsions:
REMARK  status: ('A' for Active; 'I' for Inactive)
REMARK    1  A    between atoms: C_1  and  O_2 
REMARK    2  A    between atoms: O_2  and  C_3 
REMARK    3  A    between atoms: C_4  and  O_12 
REMARK    4  A    between atoms: C_5  and  O_11 
REMARK    5  A    between atoms: C_6  and  N_7 
REMARK    6  A    between atoms: C_9  and  N_10 
REMARK    7  A    between atoms: O_12  and  C_13 
REMARK    8  A    between atoms: C_14  and  O_32 
REMARK    9  A    between atoms: C_15  and  O_20 
REMARK   10  A    between atoms: C_16  and  C_18 
REMARK   11  A    between atoms: C_18  and  O_19 
REMARK   12  A    between atoms: C_21  and  O_20 
REMARK   13  A    between atoms: C_22  and  N_31 
REMARK   14  A    between atoms: C_23  and  O_30 
REMARK   15  A    between atoms: C_24  and  O_29 
REMARK   16  A    between atoms: C_25  and  C_27 
REMARK   17  A    between atoms: C_27  and  N_28 
REMARK   18  A    between atoms: C_33  and  N_34 
REMARK   19  A    between atoms: C_35  and  O_36 
REMARK   20  A    between atoms: C_37  and  O_38 
REMARK   21  A    between atoms: C_39  and  C_41 
REMARK   22  A    between atoms: C_41  and  N_42 
ROOT
ATOM      1  C   UNL d   1      -0.111 -10.959   2.761  0.00  0.00     0.189 C 
ATOM      2  C   UNL d   1       0.003 -10.082   4.038  0.00  0.00     0.186 C 
ATOM      3  C   UNL d   1      -0.858 -10.707   5.167  0.00  0.00     0.182 C 
ATOM      4  C   UNL d   1      -0.374 -12.133   5.527  0.00  0.00     0.251 C 
ATOM      5  C   UNL d   1      -0.364 -13.026   4.276  0.00  0.00     0.076 C 
ATOM      6  C   UNL d   1       0.346 -12.425   3.041  0.00  0.00     0.251 C 
ENDROOT
BRANCH   2   7
ATOM      7  O   UNL d   1       1.388  -9.891   4.407  0.00  0.00    -0.348 OA
BRANCH   7   8
ATOM      8  C   UNL d   1       1.516  -8.931   5.455  0.00  0.00     0.292 C 
ATOM      9  C   UNL d   1       2.951  -8.694   5.907  0.00  0.00     0.205 C 
ATOM     10  C   UNL d   1       2.752  -7.409   6.723  0.00  0.00     0.189 C 
ATOM     11  C   UNL d   1       1.698  -6.671   5.876  0.00  0.00     0.180 C 
ATOM     12  O   UNL d   1       1.044  -7.653   5.037  0.00  0.00    -0.348 OA
BRANCH   9  13
ATOM     13  O   UNL d   1       3.488  -9.765   6.694  0.00  0.00    -0.388 OA
ATOM     14  H   UNL d   1       3.094  -9.666   7.579  0.00  0.00     0.210 HD
ENDBRANCH   9  13
BRANCH  10  15
ATOM     15  O   UNL d   1       2.240  -7.800   8.024  0.00  0.00    -0.348 OA
BRANCH  15  16
ATOM     16  C   UNL d   1       2.216  -6.723   8.977  0.00  0.00     0.296 C 
ATOM     17  O   UNL d   1       1.304  -5.704   8.579  0.00  0.00    -0.349 OA
ATOM     18  C   UNL d   1       1.299  -4.545   9.421  0.00  0.00     0.183 C 
ATOM     19  C   UNL d   1       0.892  -4.915  10.866  0.00  0.00     0.179 C 
ATOM     20  C   UNL d   1       1.769  -6.068  11.385  0.00  0.00     0.187 C 
ATOM     21  C   UNL d   1       1.816  -7.258  10.388  0.00  0.00     0.303 C 
BRANCH  18  22
ATOM     22  C   UNL d   1       0.352  -3.484   8.820  0.00  0.00     0.301 C 
BRANCH  22  23
ATOM     23  N   UNL d   1       0.743  -3.063   7.471  0.00  0.00     0.080 N 
ATOM     24  H   UNL d   1       1.747  -2.924   7.405  0.00  0.00     0.312 HD
ATOM     25  H   UNL d   1       0.299  -2.168   7.255  0.00  0.00     0.312 HD
ENDBRANCH  22  23
ENDBRANCH  18  22
BRANCH  19  26
ATOM     26  O   UNL d   1      -0.490  -5.287  10.901  0.00  0.00    -0.390 OA
ATOM     27  H   UNL d   1      -0.712  -5.547  11.813  0.00  0.00     0.210 HD
ENDBRANCH  19  26
BRANCH  20  28
ATOM     28  O   UNL d   1       3.085  -5.607  11.714  0.00  0.00    -0.391 OA
ATOM     29  H   UNL d   1       3.538  -5.259  10.929  0.00  0.00     0.210 HD
ENDBRANCH  20  28
BRANCH  21  30
ATOM     30  N   UNL d   1       0.526  -7.990  10.360  0.00  0.00     0.090 N 
ATOM     31  H   UNL d   1      -0.171  -7.370   9.925  0.00  0.00     0.313 HD
ATOM     32  H   UNL d   1       0.193  -8.157  11.309  0.00  0.00     0.313 HD
ENDBRANCH  21  30
ENDBRANCH  15  16
ENDBRANCH  10  15
BRANCH  11  33
ATOM     33  C   UNL d   1       2.318  -5.605   4.977  0.00  0.00     0.198 C 
BRANCH  33  34
ATOM     34  O   UNL d   1       3.225  -6.191   4.047  0.00  0.00    -0.398 OA
ATOM     35  H   UNL d   1       2.661  -6.691   3.423  0.00  0.00     0.209 HD
ENDBRANCH  33  34
ENDBRANCH  11  33
ENDBRANCH   7   8
ENDBRANCH   2   7
BRANCH   1  36
ATOM     36  O   UNL d   1      -1.477 -10.997   2.272  0.00  0.00    -0.349 OA
BRANCH  36  37
ATOM     37  C   UNL d   1      -1.941  -9.743   1.732  0.00  0.00     0.296 C 
ATOM     38  C   UNL d   1      -3.411  -9.879   1.212  0.00  0.00     0.303 C 
ATOM     39  C   UNL d   1      -3.854  -8.530   0.587  0.00  0.00     0.187 C 
ATOM     40  C   UNL d   1      -2.818  -7.986  -0.413  0.00  0.00     0.179 C 
ATOM     41  C   UNL d   1      -1.389  -7.990   0.166  0.00  0.00     0.183 C 
ATOM     42  O   UNL d   1      -1.055  -9.270   0.726  0.00  0.00    -0.349 OA
BRANCH  38  43
ATOM     43  N   UNL d   1      -3.586 -10.997   0.258  0.00  0.00     0.090 N 
ATOM     44  H   UNL d   1      -2.954 -10.840  -0.534  0.00  0.00     0.313 HD
ATOM     45  H   UNL d   1      -4.530 -10.997  -0.123  0.00  0.00     0.313 HD
ENDBRANCH  38  43
BRANCH  39  46
ATOM     46  O   UNL d   1      -4.166  -7.528   1.558  0.00  0.00    -0.391 OA
ATOM     47  H   UNL d   1      -3.757  -7.734   2.416  0.00  0.00     0.210 HD
ENDBRANCH  39  46
BRANCH  40  48
ATOM     48  O   UNL d   1      -2.822  -8.805  -1.596  0.00  0.00    -0.390 OA
ATOM     49  H   UNL d   1      -3.704  -8.741  -2.000  0.00  0.00     0.210 HD
ENDBRANCH  40  48
BRANCH  41  50
ATOM     50  C   UNL d   1      -1.118  -6.831   1.157  0.00  0.00     0.301 C 
BRANCH  50  51
ATOM     51  N   UNL d   1       0.264  -6.832   1.666  0.00  0.00     0.080 N 
ATOM     52  H   UNL d   1       0.906  -6.845   0.868  0.00  0.00     0.312 HD
ATOM     53  H   UNL d   1       0.434  -7.719   2.140  0.00  0.00     0.312 HD
ENDBRANCH  50  51
ENDBRANCH  41  50
ENDBRANCH  36  37
ENDBRANCH   1  36
BRANCH   3  54
ATOM     54  O   UNL d   1      -2.249 -10.719   4.806  0.00  0.00    -0.391 OA
ATOM     55  H   UNL d   1      -2.332 -11.214   3.965  0.00  0.00     0.210 HD
ENDBRANCH   3  54
BRANCH   6  56
ATOM     56  N   UNL d   1       1.810 -12.537   3.143  0.00  0.00     0.085 N 
ATOM     57  H   UNL d   1       2.059 -13.284   3.792  0.00  0.00     0.313 HD
ATOM     58  H   UNL d   1       2.199 -11.677   3.539  0.00  0.00     0.313 HD
ENDBRANCH   6  56
BRANCH   4  59
ATOM     59  N   UNL d   1       0.934 -12.173   6.196  0.00  0.00     0.085 N 
ATOM     60  H   UNL d   1       0.907 -11.614   7.046  0.00  0.00     0.313 HD
ATOM     61  H   UNL d   1       1.645 -11.730   5.605  0.00  0.00     0.313 HD
ENDBRANCH   4  59
TORSDOF 22
