@<TRIPOS>MOLECULE
2A04_NMY_A_17
 88 91 0 0 0
SMALL
GASTEIGER

@<TRIPOS>ATOM
      1 C          -1.9407   -9.7429    1.7323 C.3     1  UNL1        0.1776
      2 H          -1.9730   -9.0257    2.5549 H       1  UNL1        0.0927
      3 O          -1.4766  -10.9969    2.2720 O.3     1  UNL1       -0.3422
      4 C          -0.1114  -10.9586    2.7611 C.3     1  UNL1        0.1055
      5 H           0.5373  -10.5625    1.9695 H       1  UNL1        0.0639
      6 C           0.0030  -10.0818    4.0383 C.3     1  UNL1        0.1166
      7 H          -0.4098   -9.0985    3.8026 H       1  UNL1        0.0650
      8 C          -0.8584  -10.7067    5.1667 C.3     1  UNL1        0.0990
      9 H          -0.8221  -10.0899    6.0668 H       1  UNL1        0.0636
     10 C          -0.3740  -12.1333    5.5265 C.3     1  UNL1        0.0351
     11 H          -1.0976  -12.5657    6.2286 H       1  UNL1        0.0485
     12 N           0.9344  -12.1731    6.1956 N.3     1  UNL1       -0.3250
     13 C          -0.3641  -13.0257    4.2762 C.3     1  UNL1       -0.0175
     14 C           0.3457  -12.4248    3.0411 C.3     1  UNL1        0.0355
     15 H           0.0494  -13.0452    2.1857 H       1  UNL1        0.0485
     16 N           1.8103  -12.5365    3.1427 N.3     1  UNL1       -0.3250
     17 O          -2.2487  -10.7187    4.8063 O.3     1  UNL1       -0.3876
     18 O           1.3879   -9.8911    4.4066 O.3     1  UNL1       -0.3402
     19 C           1.5165   -8.9307    5.4546 C.3     1  UNL1        0.1884
     20 H           0.9475   -9.2643    6.3257 H       1  UNL1        0.0938
     21 C           2.9515   -8.6939    5.9075 C.3     1  UNL1        0.1345
     22 H           3.6130   -8.5383    5.0476 H       1  UNL1        0.0671
     23 C           2.7524   -7.4090    6.7230 C.3     1  UNL1        0.1205
     24 H           3.6934   -6.8740    6.8685 H       1  UNL1        0.0651
     25 C           1.6983   -6.6715    5.8757 C.3     1  UNL1        0.1135
     26 H           0.9039   -6.2215    6.4662 H       1  UNL1        0.0647
     27 O           1.0435   -7.6530    5.0373 O.3     1  UNL1       -0.3405
     28 C           2.3179   -5.6054    4.9773 C.3     1  UNL1        0.0730
     29 O           3.2252   -6.1912    4.0467 O.3     1  UNL1       -0.3924
     30 O           2.2396   -7.8000    8.0243 O.3     1  UNL1       -0.3410
     31 C           2.2160   -6.7227    8.9774 C.3     1  UNL1        0.1776
     32 H           3.2300   -6.3017    9.0239 H       1  UNL1        0.0927
     33 C           1.8163   -7.2582   10.3883 C.3     1  UNL1        0.0853
     34 H           2.5824   -7.9784   10.7079 H       1  UNL1        0.0535
     35 C           1.7692   -6.0684   11.3854 C.3     1  UNL1        0.1033
     36 H           1.3492   -6.4287   12.3310 H       1  UNL1        0.0637
     37 C           0.8924   -4.9151   10.8664 C.3     1  UNL1        0.1100
     38 H           1.0091   -4.0301   11.5042 H       1  UNL1        0.0646
     39 C           1.2986   -4.5450    9.4206 C.3     1  UNL1        0.1022
     40 H           2.3215   -4.1323    9.4278 H       1  UNL1        0.0636
     41 O           1.3042   -5.7036    8.5792 O.3     1  UNL1       -0.3425
     42 C           0.3524   -3.4838    8.8205 C.3     1  UNL1        0.0222
     43 N           0.7426   -3.0635    7.4708 N.3     1  UNL1       -0.3276
     44 O          -0.4900   -5.2875   10.9009 O.3     1  UNL1       -0.3866
     45 O           3.0852   -5.6067   11.7140 O.3     1  UNL1       -0.3874
     46 N           0.5264   -7.9896   10.3602 N.3     1  UNL1       -0.3211
     47 O           3.4882   -9.7654    6.6939 O.3     1  UNL1       -0.3841
     48 C          -3.4108   -9.8789    1.2120 C.3     1  UNL1        0.0853
     49 H          -4.0475  -10.1101    2.0752 H       1  UNL1        0.0535
     50 N          -3.5857  -10.9972    0.2578 N.3     1  UNL1       -0.3211
     51 C          -3.8537   -8.5304    0.5866 C.3     1  UNL1        0.1033
     52 H          -4.7959   -8.6987    0.0494 H       1  UNL1        0.0637
     53 O          -4.1663   -7.5279    1.5581 O.3     1  UNL1       -0.3874
     54 C          -2.8183   -7.9863   -0.4128 C.3     1  UNL1        0.1100
     55 H          -3.0806   -6.9687   -0.7259 H       1  UNL1        0.0646
     56 O          -2.8216   -8.8054   -1.5957 O.3     1  UNL1       -0.3866
     57 C          -1.3894   -7.9897    0.1664 C.3     1  UNL1        0.1022
     58 H          -0.6932   -7.8641   -0.6727 H       1  UNL1        0.0636
     59 O          -1.0547   -9.2702    0.7255 O.3     1  UNL1       -0.3425
     60 C          -1.1176   -6.8307    1.1570 C.3     1  UNL1        0.0222
     61 N           0.2644   -6.8322    1.6659 N.3     1  UNL1       -0.3276
     62 H           0.9066  -11.6143    7.0465 H       1  UNL1        0.1185
     63 H           1.6454  -11.7298    5.6046 H       1  UNL1        0.1185
     64 H          -1.4059  -13.2376    4.0005 H       1  UNL1        0.0297
     65 H           0.0642  -14.0076    4.5218 H       1  UNL1        0.0297
     66 H           2.0593  -13.2840    3.7922 H       1  UNL1        0.1185
     67 H           2.1991  -11.6774    3.5388 H       1  UNL1        0.1185
     68 H          -2.3315  -11.2138    3.9649 H       1  UNL1        0.2100
     69 H           1.5448   -5.0849    4.4029 H       1  UNL1        0.0584
     70 H           2.8662   -4.8686    5.5731 H       1  UNL1        0.0584
     71 H           2.6608   -6.6906    3.4228 H       1  UNL1        0.2095
     72 H           0.3432   -2.6028    9.4731 H       1  UNL1        0.0448
     73 H          -0.6711   -3.8726    8.7626 H       1  UNL1        0.0448
     74 H           1.7473   -2.9238    7.4047 H       1  UNL1        0.1183
     75 H           0.2994   -2.1676    7.2552 H       1  UNL1        0.1183
     76 H          -0.7122   -5.5470   11.8127 H       1  UNL1        0.2100
     77 H           3.5380   -5.2586   10.9288 H       1  UNL1        0.2100
     78 H          -0.1706   -7.3702    9.9252 H       1  UNL1        0.1187
     79 H           0.1934   -8.1572   11.3087 H       1  UNL1        0.1187
     80 H           3.0936   -9.6659    7.5789 H       1  UNL1        0.2101
     81 H          -2.9539  -10.8396   -0.5339 H       1  UNL1        0.1187
     82 H          -4.5304  -10.9974   -0.1231 H       1  UNL1        0.1187
     83 H          -3.7573   -7.7338    2.4160 H       1  UNL1        0.2100
     84 H          -3.7044   -8.7408   -2.0000 H       1  UNL1        0.2100
     85 H          -1.3072   -5.8713    0.6645 H       1  UNL1        0.0448
     86 H          -1.7714   -6.8768    2.0304 H       1  UNL1        0.0448
     87 H           0.9064   -6.8445    0.8683 H       1  UNL1        0.1183
     88 H           0.4337   -7.7190    2.1399 H       1  UNL1        0.1183
@<TRIPOS>BOND
     1     1    48    1
     2     1    59    1
     3     1     3    1
     4     1     2    1
     5     3     4    1
     6     4     5    1
     7     4     6    1
     8     6     8    1
     9     6    18    1
    10     6     7    1
    11     8    10    1
    12     8    17    1
    13     8     9    1
    14    10    11    1
    15    10    12    1
    16    10    13    1
    17    12    62    1
    18    12    63    1
    19    13    14    1
    20    13    64    1
    21    13    65    1
    22    14    15    1
    23    14     4    1
    24    14    16    1
    25    16    66    1
    26    16    67    1
    27    17    68    1
    28    18    19    1
    29    19    20    1
    30    19    21    1
    31    19    27    1
    32    21    23    1
    33    21    47    1
    34    21    22    1
    35    23    24    1
    36    23    25    1
    37    23    30    1
    38    25    27    1
    39    25    28    1
    40    25    26    1
    41    28    29    1
    42    28    69    1
    43    28    70    1
    44    29    71    1
    45    31    41    1
    46    31    32    1
    47    31    30    1
    48    33    31    1
    49    33    46    1
    50    33    34    1
    51    35    33    1
    52    35    45    1
    53    35    36    1
    54    37    35    1
    55    37    38    1
    56    37    44    1
    57    39    37    1
    58    39    40    1
    59    39    41    1
    60    39    42    1
    61    42    43    1
    62    42    72    1
    63    42    73    1
    64    43    74    1
    65    43    75    1
    66    44    76    1
    67    45    77    1
    68    46    78    1
    69    46    79    1
    70    47    80    1
    71    48    51    1
    72    48    50    1
    73    48    49    1
    74    50    81    1
    75    50    82    1
    76    51    54    1
    77    51    53    1
    78    51    52    1
    79    53    83    1
    80    54    55    1
    81    54    56    1
    82    54    57    1
    83    56    84    1
    84    57    59    1
    85    57    60    1
    86    57    58    1
    87    60    61    1
    88    60    85    1
    89    60    86    1
    90    61    87    1
    91    61    88    1
