2F4S_XXX_B_501
 OpenBabel10091713573D
Coordinates from PDB:2F4S:B:501 Model:1 without hydrogens
 22 23  0  0  0  0  0  0  0  0999 V2000
   21.8610   15.3700   34.5550 O   0  0  0  0  0  0  0  0  0  0  0  0
   22.6590   16.1640   35.4800 C   0  0  2  0  0  0  0  0  0  0  0  0
   24.0760   16.4040   34.8900 C   0  0  1  0  0  0  0  0  0  0  0  0
   23.9990   17.0640   33.6210 O   0  0  0  0  0  0  0  0  0  0  0  0
   24.9280   17.2580   35.8210 C   0  0  2  0  0  0  0  0  0  0  0  0
   26.3000   17.4600   35.2140 N   0  0  0  0  0  0  0  0  0  0  0  0
   25.0470   16.5560   37.2160 C   0  0  0  0  0  0  0  0  0  0  0  0
   23.5970   16.3620   37.8050 C   0  0  2  0  0  0  0  0  0  0  0  0
   23.7580   15.7050   39.1680 N   0  0  0  0  0  0  0  0  0  0  0  0
   22.7740   15.4450   36.8820 C   0  0  1  0  0  0  0  0  0  0  0  0
   21.4800   15.2960   37.4460 O   0  0  0  0  0  0  0  0  0  0  0  0
   20.5170   14.3870   36.9430 C   0  0  1  0  0  0  0  0  0  0  0  0
   20.9940   13.0370   37.3700 O   0  0  0  0  0  0  0  0  0  0  0  0
   21.1040   12.8050   38.8380 C   0  0  2  0  0  0  0  0  0  0  0  0
   21.6320   11.3850   39.0640 C   0  0  0  0  0  0  0  0  0  0  0  0
   23.0120   11.3160   38.4850 N   0  0  0  0  0  0  0  0  0  0  0  0
   19.7250   12.9450   39.4430 C   0  0  1  0  0  0  0  0  0  0  0  0
   19.8080   12.7310   40.8320 O   0  0  0  0  0  0  0  0  0  0  0  0
   19.1680   14.3340   39.1360 C   0  0  2  0  0  0  0  0  0  0  0  0
   17.8580   14.4700   39.6990 O   0  0  0  0  0  0  0  0  0  0  0  0
   19.1010   14.5350   37.6020 C   0  0  1  0  0  0  0  0  0  0  0  0
   18.5240   15.8930   37.2950 N   0  0  0  0  0  0  0  0  0  0  0  0
  2  1  1  6  0  0  0
  2  3  1  0  0  0  0
  2 10  1  0  0  0  0
  3  4  1  6  0  0  0
  3  5  1  0  0  0  0
  5  6  1  6  0  0  0
  5  7  1  0  0  0  0
  7  8  1  0  0  0  0
  8  9  1  1  0  0  0
  8 10  1  0  0  0  0
 10 11  1  1  0  0  0
 12 11  1  1  0  0  0
 12 13  1  0  0  0  0
 12 21  1  0  0  0  0
 13 14  1  0  0  0  0
 14 15  1  6  0  0  0
 14 17  1  0  0  0  0
 15 16  1  0  0  0  0
 17 18  1  1  0  0  0
 17 19  1  0  0  0  0
 19 20  1  6  0  0  0
 19 21  1  0  0  0  0
 21 22  1  1  0  0  0
A    1
O3
A    2
C4
A    3
C5
A    4
O4
A    5
C6
A    6
N1
A    7
C7
A    8
C8
A    9
N2
A   10
C9
A   11
O5
A   12
C10
A   13
O6
A   14
C11
A   15
C12
A   16
N3
A   17
C13
A   18
O7
A   19
C14
A   20
O8
A   21
C15
A   22
N4
M  END
>  <InstanceId>
2F4S_XXX_B_501

>  <ChemCompId>
XXX

>  <PdbId>
2F4S

>  <ChainId>
B

>  <ResidueNumber>
501

>  <InsertionCode>


>  <Model>
1

>  <AltIds>


>  <MissingHeavyAtoms>
0

>  <ObservedFormula>
C12 N4 O6

>  <Name>
(2R,3S,4R,5R,6R)-6-((1R,2R,3S,4R,6S)-4,6-DIAMINO-2,3-DIHYDROXYCYCLOHEXYLOXY)-5-AMINO-2-(AMINOMETHYL)-TETRAHYDRO-2H-PYRAN-3,4-DIOL

>  <SystematicName>
(2R,3S,4R,5R,6R)-5-amino-2-(aminomethyl)-6-[(1R,2R,3S,4R,6S)-4,6-diamino-2,3-dihydroxy-cyclohexyl]oxy-oxane-3,4-diol

>  <Synonyms>
NEOMYCIN A, NEAMINE

>  <Type>
NON-POLYMER

>  <Formula>
C12 H26 N4 O6

>  <MolecularWeight>
322.358

>  <ModifiedDate>
2011-06-04

>  <Parent>


>  <OneLetterCode>


>  <SubcomponentList>


>  <AmbiguousFlag>
N

>  <InChI>
InChI=1S/C12H26N4O6/c13-2-5-8(18)9(19)6(16)12(21-5)22-11-4(15)1-3(14)7(17)10(11)20/h3-12,17-20H,1-2,13-16H2/t3-,4+,5-,6-,7+,8-,9-,10-,11-,12-/m1/s1

>  <InChIKey>
SYJXFKPQNSDJLI-HKEUSBCWSA-N

>  <SMILES>
C1[C@H]([C@@H]([C@H]([C@@H]([C@H]1N)O[C@@H]2[C@@H]([C@H]([C@@H]([C@H](O2)CN)O)O)N)O)O)N

$$$$
