2F4S_XXX_B_501
 OpenBabel10091713573D
Coordinates from PDB:2F4S:B:501 Model:1 without hydrogens
 48 49  0  0  0  0  0  0  0  0999 V2000
   21.8610   15.3700   34.5550 O   0  0  0  0  0  0  0  0  0  0  0  0
   22.6590   16.1640   35.4800 C   0  0  2  0  0  0  0  0  0  0  0  0
   24.0760   16.4040   34.8900 C   0  0  1  0  0  0  0  0  0  0  0  0
   23.9990   17.0640   33.6210 O   0  0  0  0  0  0  0  0  0  0  0  0
   24.9280   17.2580   35.8210 C   0  0  2  0  0  0  0  0  0  0  0  0
   26.3000   17.4600   35.2140 N   0  0  0  0  0  0  0  0  0  0  0  0
   25.0470   16.5560   37.2160 C   0  0  0  0  0  0  0  0  0  0  0  0
   23.5970   16.3620   37.8050 C   0  0  2  0  0  0  0  0  0  0  0  0
   23.7580   15.7050   39.1680 N   0  0  0  0  0  0  0  0  0  0  0  0
   22.7740   15.4450   36.8820 C   0  0  1  0  0  0  0  0  0  0  0  0
   21.4800   15.2960   37.4460 O   0  0  0  0  0  0  0  0  0  0  0  0
   20.5170   14.3870   36.9430 C   0  0  1  0  0  0  0  0  0  0  0  0
   20.9940   13.0370   37.3700 O   0  0  0  0  0  0  0  0  0  0  0  0
   21.1040   12.8050   38.8380 C   0  0  2  0  0  0  0  0  0  0  0  0
   21.6320   11.3850   39.0640 C   0  0  0  0  0  0  0  0  0  0  0  0
   23.0120   11.3160   38.4850 N   0  0  0  0  0  0  0  0  0  0  0  0
   19.7250   12.9450   39.4430 C   0  0  1  0  0  0  0  0  0  0  0  0
   19.8080   12.7310   40.8320 O   0  0  0  0  0  0  0  0  0  0  0  0
   19.1680   14.3340   39.1360 C   0  0  2  0  0  0  0  0  0  0  0  0
   17.8580   14.4700   39.6990 O   0  0  0  0  0  0  0  0  0  0  0  0
   19.1010   14.5350   37.6020 C   0  0  1  0  0  0  0  0  0  0  0  0
   18.5240   15.8930   37.2950 N   0  0  0  0  0  0  0  0  0  0  0  0
   21.8031   15.8285   33.7022 H   0  0  0  0  0  0  0  0  0  0  0  0
   22.1719   17.1061   35.6217 H   0  0  0  0  0  0  0  0  0  0  0  0
   24.5279   15.4411   34.7735 H   0  0  0  0  0  0  0  0  0  0  0  0
   23.5886   17.9356   33.7342 H   0  0  0  0  0  0  0  0  0  0  0  0
   24.4658   18.2139   35.9534 H   0  0  0  0  0  0  0  0  0  0  0  0
   26.7506   16.5543   35.0831 H   0  0  0  0  0  0  0  0  0  0  0  0
   26.8666   18.0346   35.8379 H   0  0  0  0  0  0  0  0  0  0  0  0
   25.6268   17.1648   37.8779 H   0  0  0  0  0  0  0  0  0  0  0  0
   25.5286   15.6066   37.1083 H   0  0  0  0  0  0  0  0  0  0  0  0
   23.0882   17.2999   37.8851 H   0  0  0  0  0  0  0  0  0  0  0  0
   24.2450   14.8152   39.0611 H   0  0  0  0  0  0  0  0  0  0  0  0
   22.8382   15.5421   39.5777 H   0  0  0  0  0  0  0  0  0  0  0  0
   23.2311   14.4840   36.7708 H   0  0  0  0  0  0  0  0  0  0  0  0
   20.4213   14.5532   35.8903 H   0  0  0  0  0  0  0  0  0  0  0  0
   21.7692   13.5095   39.2920 H   0  0  0  0  0  0  0  0  0  0  0  0
   20.9956   10.6772   38.5751 H   0  0  0  0  0  0  0  0  0  0  0  0
   21.6513   11.1536   40.1085 H   0  0  0  0  0  0  0  0  0  0  0  0
   22.9749   11.5390   37.4904 H   0  0  0  0  0  0  0  0  0  0  0  0
   23.3860   10.3752   38.6088 H   0  0  0  0  0  0  0  0  0  0  0  0
   19.0623   12.2184   39.0214 H   0  0  0  0  0  0  0  0  0  0  0  0
   20.4070   13.3851   41.2247 H   0  0  0  0  0  0  0  0  0  0  0  0
   19.8100   15.0747   39.5651 H   0  0  0  0  0  0  0  0  0  0  0  0
   17.2698   13.8013   39.3145 H   0  0  0  0  0  0  0  0  0  0  0  0
   18.4694   13.7756   37.1905 H   0  0  0  0  0  0  0  0  0  0  0  0
   19.1273   16.6155   37.6880 H   0  0  0  0  0  0  0  0  0  0  0  0
   17.5930   15.9674   37.7049 H   0  0  0  0  0  0  0  0  0  0  0  0
  1  2  1  0  0  0  0
  1 23  1  0  0  0  0
  2  3  1  0  0  0  0
  2 10  1  0  0  0  0
  2 24  1  1  0  0  0
  3  4  1  0  0  0  0
  3  5  1  0  0  0  0
  3 25  1  6  0  0  0
  4 26  1  0  0  0  0
  5  6  1  0  0  0  0
  5  7  1  0  0  0  0
  5 27  1  1  0  0  0
  6 28  1  0  0  0  0
  6 29  1  0  0  0  0
  7  8  1  0  0  0  0
  7 30  1  0  0  0  0
  7 31  1  0  0  0  0
  8  9  1  0  0  0  0
  8 10  1  0  0  0  0
  8 32  1  1  0  0  0
  9 33  1  0  0  0  0
  9 34  1  0  0  0  0
 10 11  1  0  0  0  0
 10 35  1  6  0  0  0
 11 12  1  0  0  0  0
 12 13  1  0  0  0  0
 12 21  1  0  0  0  0
 12 36  1  6  0  0  0
 13 14  1  0  0  0  0
 14 15  1  0  0  0  0
 14 17  1  0  0  0  0
 14 37  1  1  0  0  0
 15 16  1  0  0  0  0
 15 38  1  0  0  0  0
 15 39  1  0  0  0  0
 16 40  1  0  0  0  0
 16 41  1  0  0  0  0
 17 18  1  0  0  0  0
 17 19  1  0  0  0  0
 17 42  1  6  0  0  0
 18 43  1  0  0  0  0
 19 20  1  0  0  0  0
 19 21  1  0  0  0  0
 19 44  1  1  0  0  0
 20 45  1  0  0  0  0
 21 22  1  0  0  0  0
 21 46  1  6  0  0  0
 22 47  1  0  0  0  0
 22 48  1  0  0  0  0
A    1
O3
A    2
C4
A    3
C5
A    4
O4
A    5
C6
A    6
N1
A    7
C7
A    8
C8
A    9
N2
A   10
C9
A   11
O5
A   12
C10
A   13
O6
A   14
C11
A   15
C12
A   16
N3
A   17
C13
A   18
O7
A   19
C14
A   20
O8
A   21
C15
A   22
N4
M  END
>  <InstanceId>
2F4S_XXX_B_501

>  <ChemCompId>
XXX

>  <PdbId>
2F4S

>  <ChainId>
B

>  <ResidueNumber>
501

>  <InsertionCode>


>  <Model>
1

>  <AltIds>


>  <MissingHeavyAtoms>
0

>  <ObservedFormula>
C12 N4 O6

>  <Name>
(2R,3S,4R,5R,6R)-6-((1R,2R,3S,4R,6S)-4,6-DIAMINO-2,3-DIHYDROXYCYCLOHEXYLOXY)-5-AMINO-2-(AMINOMETHYL)-TETRAHYDRO-2H-PYRAN-3,4-DIOL

>  <SystematicName>
(2R,3S,4R,5R,6R)-5-amino-2-(aminomethyl)-6-[(1R,2R,3S,4R,6S)-4,6-diamino-2,3-dihydroxy-cyclohexyl]oxy-oxane-3,4-diol

>  <Synonyms>
NEOMYCIN A, NEAMINE

>  <Type>
NON-POLYMER

>  <Formula>
C12 H26 N4 O6

>  <MolecularWeight>
322.358

>  <ModifiedDate>
2011-06-04

>  <Parent>


>  <OneLetterCode>


>  <SubcomponentList>


>  <AmbiguousFlag>
N

>  <InChI>
InChI=1S/C12H26N4O6/c13-2-5-8(18)9(19)6(16)12(21-5)22-11-4(15)1-3(14)7(17)10(11)20/h3-12,17-20H,1-2,13-16H2/t3-,4+,5-,6-,7+,8-,9-,10-,11-,12-/m1/s1

>  <InChIKey>
SYJXFKPQNSDJLI-HKEUSBCWSA-N

>  <SMILES>
C1[C@H]([C@@H]([C@H]([C@@H]([C@H]1N)O[C@@H]2[C@@H]([C@H]([C@@H]([C@H](O2)CN)O)O)N)O)O)N

$$$$
