REMARK  3 active torsions:
REMARK  status: ('A' for Active; 'I' for Inactive)
REMARK    1  A    between atoms: C_10  and  O_11 
REMARK    2  A    between atoms: C_12  and  O_11 
REMARK    3  A    between atoms: C_14  and  C_15 
ROOT
ATOM      1  C   UNL d   1      20.517  14.387  36.943  0.00  0.00     0.276 C 
ATOM      2  O   UNL d   1      20.994  13.037  37.370  0.00  0.00    -0.327 OA
ATOM      3  C   UNL d   1      21.104  12.805  38.838  0.00  0.00     0.190 C 
ATOM      4  C   UNL d   1      19.725  12.945  39.443  0.00  0.00     0.214 C 
ATOM      5  O   UNL d   1      19.808  12.731  40.832  0.00  0.00    -0.218 OA
ATOM      6  C   UNL d   1      19.168  14.334  39.136  0.00  0.00     0.227 C 
ATOM      7  O   UNL d   1      17.858  14.470  39.699  0.00  0.00    -0.218 OA
ATOM      8  C   UNL d   1      19.101  14.535  37.602  0.00  0.00     0.390 C 
ATOM      9  N   UNL d   1      18.524  15.893  37.295  0.00  0.00     0.624 N 
ENDROOT
BRANCH   1  10
ATOM     10  O   UNL d   1      21.480  15.296  37.446  0.00  0.00    -0.327 OA
BRANCH  10  11
ATOM     11  C   UNL d   1      22.774  15.445  36.882  0.00  0.00     0.188 C 
ATOM     12  C   UNL d   1      22.659  16.164  35.480  0.00  0.00     0.214 C 
ATOM     13  O   UNL d   1      21.861  15.370  34.555  0.00  0.00    -0.218 OA
ATOM     14  C   UNL d   1      24.076  16.404  34.890  0.00  0.00     0.222 C 
ATOM     15  O   UNL d   1      23.999  17.064  33.621  0.00  0.00    -0.218 OA
ATOM     16  C   UNL d   1      24.928  17.258  35.821  0.00  0.00     0.337 C 
ATOM     17  N   UNL d   1      26.300  17.460  35.214  0.00  0.00     0.619 N 
ATOM     18  C   UNL d   1      25.047  16.556  37.216  0.00  0.00     0.084 C 
ATOM     19  C   UNL d   1      23.597  16.362  37.805  0.00  0.00     0.334 C 
ATOM     20  N   UNL d   1      23.758  15.705  39.168  0.00  0.00     0.619 N 
ENDBRANCH  10  11
ENDBRANCH   1  10
BRANCH   3  21
ATOM     21  C   UNL d   1      21.632  11.385  39.064  0.00  0.00     0.370 C 
ATOM     22  N   UNL d   1      23.012  11.316  38.485  0.00  0.00     0.621 N 
ENDBRANCH   3  21
TORSDOF 3
