@<TRIPOS>MOLECULE
2F4S_XXX_B_501
 22 23 0 0 0
SMALL
GASTEIGER
****
Coordinates from PDB:2F4S:B:501 Model:1 without hydrogens
@<TRIPOS>ATOM
      1 O          21.8610   15.3700   34.5550 O.3     1  UNL1       -0.2177
      2 C          22.6590   16.1640   35.4800 C.3     1  UNL1        0.2119
      3 C          24.0760   16.4040   34.8900 C.3     1  UNL1        0.2020
      4 O          23.9990   17.0640   33.6210 O.3     1  UNL1       -0.2188
      5 C          24.9280   17.2580   35.8210 C.3     1  UNL1        0.1262
      6 N          26.3000   17.4600   35.2140 N.3     1  UNL1       -0.1301
      7 C          25.0470   16.5560   37.2160 C.3     1  UNL1        0.0433
      8 C          23.5970   16.3620   37.8050 C.3     1  UNL1        0.1231
      9 N          23.7580   15.7050   39.1680 N.3     1  UNL1       -0.1302
     10 C          22.7740   15.4450   36.8820 C.3     1  UNL1        0.1681
     11 O          21.4800   15.2960   37.4460 O.3     1  UNL1       -0.3277
     12 C          20.5170   14.3870   36.9430 C.3     1  UNL1        0.2561
     13 O          20.9940   13.0370   37.3700 O.3     1  UNL1       -0.3276
     14 C          21.1040   12.8050   38.8380 C.3     1  UNL1        0.1696
     15 C          21.6320   11.3850   39.0640 C.3     1  UNL1        0.1415
     16 N          23.0120   11.3160   38.4850 N.3     1  UNL1       -0.1286
     17 C          19.7250   12.9450   39.4430 C.3     1  UNL1        0.2122
     18 O          19.8080   12.7310   40.8320 O.3     1  UNL1       -0.2177
     19 C          19.1680   14.3340   39.1360 C.3     1  UNL1        0.2070
     20 O          17.8580   14.4700   39.6990 O.3     1  UNL1       -0.2186
     21 C          19.1010   14.5350   37.6020 C.3     1  UNL1        0.1807
     22 N          18.5240   15.8930   37.2950 N.3     1  UNL1       -0.1248
@<TRIPOS>BOND
     1     2     1    1
     2     2     3    1
     3     2    10    1
     4     3     4    1
     5     3     5    1
     6     5     6    1
     7     5     7    1
     8     7     8    1
     9     8     9    1
    10     8    10    1
    11    10    11    1
    12    12    11    1
    13    12    13    1
    14    12    21    1
    15    13    14    1
    16    14    15    1
    17    14    17    1
    18    15    16    1
    19    17    18    1
    20    17    19    1
    21    19    20    1
    22    19    21    1
    23    21    22    1
