ligand.pdb
 OpenBabel03221815583D

 27 29  0  0  1  0  0  0  0  0999 V2000
   17.6370   -6.6890   25.0850 N   0  0  0  0  0  0  0  0  0  0  0  0
   16.2880   -6.2100   25.5200 C   0  0  2  0  0  0  0  0  0  0  0  0
   16.1050   -6.2080   27.0510 C   0  0  0  0  0  0  0  0  0  0  0  0
   17.0230   -6.5490   27.8110 O   0  0  0  0  0  0  0  0  0  0  0  0
   15.0370   -5.8520   27.5780 O   0  0  0  0  0  0  0  0  0  0  0  0
   15.2090   -7.0310   24.8230 C   0  0  0  0  0  0  0  0  0  0  0  0
   13.9830   -6.2000   24.4470 C   0  0  0  0  0  0  0  0  0  0  0  0
   12.4830   -7.1430   24.0610 S   0  0  2  0  0  0  0  0  0  0  0  0
   11.4010   -6.6480   25.4260 C   0  0  0  0  0  0  0  0  0  0  0  0
   12.8970   -8.8270   24.6130 C   0  0  0  0  0  0  0  0  0  0  0  0
   12.1250   -9.9130   23.8720 C   0  0  1  0  0  0  0  0  0  0  0  0
   12.0570   -9.6210   22.4880 O   0  0  0  0  0  0  0  0  0  0  0  0
   12.8340  -11.2460   23.9720 C   0  0  1  0  0  0  0  0  0  0  0  0
   11.8480  -12.2360   24.0830 O   0  0  0  0  0  0  0  0  0  0  0  0
   13.5700  -11.3910   22.6590 C   0  0  1  0  0  0  0  0  0  0  0  0
   13.6740  -12.7360   22.2850 O   0  0  0  0  0  0  0  0  0  0  0  0
   12.6780  -10.6320   21.7090 C   0  0  2  0  0  0  0  0  0  0  0  0
   13.3630   -9.9900   20.5750 N   0  0  0  0  0  0  0  0  0  0  0  0
   13.0530  -10.2440   19.2710 C   0  0  0  0  0  0  0  0  0  0  0  0
   13.8410   -9.4880   18.4770 N   0  0  0  0  0  0  0  0  0  0  0  0
   14.6440   -8.7370   19.2650 C   0  0  0  0  0  0  0  0  0  0  0  0
   15.6250   -7.7940   18.9640 C   0  0  0  0  0  0  0  0  0  0  0  0
   15.8960   -7.5000   17.6920 N   0  0  0  0  0  0  0  0  0  0  0  0
   16.3030   -7.1610   19.9950 N   0  0  0  0  0  0  0  0  0  0  0  0
   16.0050   -7.4730   21.3120 C   0  0  0  0  0  0  0  0  0  0  0  0
   15.0380   -8.4180   21.5970 N   0  0  0  0  0  0  0  0  0  0  0  0
   14.3510   -9.0340   20.5960 C   0  0  0  0  0  0  0  0  0  0  0  0
  2  3  1  0  0  0  0
  2  6  1  0  0  0  0
  2  1  1  1  0  0  0
  3  4  2  0  0  0  0
  3  5  1  0  0  0  0
  6  7  1  0  0  0  0
  7  8  1  0  0  0  0
  8  9  1  1  0  0  0
  8 10  1  0  0  0  0
 11 12  1  0  0  0  0
 11 13  1  0  0  0  0
 11 10  1  1  0  0  0
 12 17  1  0  0  0  0
 13 14  1  6  0  0  0
 13 15  1  0  0  0  0
 15 16  1  6  0  0  0
 15 17  1  0  0  0  0
 17 18  1  6  0  0  0
 18 19  1  0  0  0  0
 18 27  1  0  0  0  0
 19 20  2  0  0  0  0
 20 21  1  0  0  0  0
 21 22  1  0  0  0  0
 21 27  2  0  0  0  0
 22 23  1  0  0  0  0
 22 24  2  0  0  0  0
 24 25  1  0  0  0  0
 25 26  2  0  0  0  0
 26 27  1  0  0  0  0
M  END
>  <HEADER>
RNA                                     13-AUG-08   3E5C

>  <TITLE>
CRYSTAL STRUCTURE OF THE SMK BOX (SAM-III) RIBOSWITCH WITH
2 SAM

>  <COMPND>
MOL_ID: 1;
2 MOLECULE: SMK BOX (SAM-III) RIBOSWITCH;
3 CHAIN: A;
4 ENGINEERED: YES

>  <SOURCE>
MOL_ID: 1;
2 SYNTHETIC: YES;
3 OTHER_DETAILS: RNA WAS PREPARED BY IN VITRO TRANSCRIPTION

>  <KEYWDS>
SAM RIBOSWITCH SMK SAM-III TRANSLATION REGULATION SD, RNA

>  <EXPDTA>
X-RAY DIFFRACTION

>  <AUTHOR>
C.LU

>  <REVDAT>
3   24-FEB-09 3E5C    1       VERSN
2   21-OCT-08 3E5C    1       JRNL
1   07-OCT-08 3E5C    0

>  <JRNL>
AUTH   C.LU,A.M.SMITH,R.T.FUCHS,F.DING,K.RAJASHANKAR,
AUTH 2 T.M.HENKIN,A.KE
TITL   CRYSTAL STRUCTURES OF THE SAM-III/S(MK) RIBOSWITCH
TITL 2 REVEAL THE SAM-DEPENDENT TRANSLATION INHIBITION
TITL 3 MECHANISM.
REF    NAT.STRUCT.MOL.BIOL.          V.  15  1076 2008
REFN                   ISSN 1545-9993
PMID   18806797
DOI    10.1038/NSMB.1494

>  <REMARK>
1
2
2 RESOLUTION.    2.25 ANGSTROMS.
3
3 REFINEMENT.
3   PROGRAM     : CNS 1.2
3   AUTHORS     : BRUNGER,ADAMS,CLORE,DELANO,GROS,GROSSE-
3               : KUNSTLEVE,JIANG,KUSZEWSKI,NILGES, PANNU,
3               : READ,RICE,SIMONSON,WARREN
3
3  REFINEMENT TARGET : NULL
3
3  DATA USED IN REFINEMENT.
3   RESOLUTION RANGE HIGH (ANGSTROMS) : 2.25
3   RESOLUTION RANGE LOW  (ANGSTROMS) : 19.90
3   DATA CUTOFF            (SIGMA(F)) : 0.000
3   DATA CUTOFF HIGH         (ABS(F)) : 1443315.130
3   DATA CUTOFF LOW          (ABS(F)) : 0.0000
3   COMPLETENESS (WORKING+TEST)   (%) : 93.3
3   NUMBER OF REFLECTIONS             : 9607
3
3  FIT TO DATA USED IN REFINEMENT.
3   CROSS-VALIDATION METHOD          : THROUGHOUT
3   FREE R VALUE TEST SET SELECTION  : RANDOM
3   R VALUE            (WORKING SET) : 0.221
3   FREE R VALUE                     : 0.227
3   FREE R VALUE TEST SET SIZE   (%) : 4.800
3   FREE R VALUE TEST SET COUNT      : 460
3   ESTIMATED ERROR OF FREE R VALUE  : 0.011
3
3  FIT IN THE HIGHEST RESOLUTION BIN.
3   TOTAL NUMBER OF BINS USED           : 6
3   BIN RESOLUTION RANGE HIGH       (A) : 2.25
3   BIN RESOLUTION RANGE LOW        (A) : 2.39
3   BIN COMPLETENESS (WORKING+TEST) (%) : 69.40
3   REFLECTIONS IN BIN    (WORKING SET) : 1108
3   BIN R VALUE           (WORKING SET) : 0.3410
3   BIN FREE R VALUE                    : 0.3350
3   BIN FREE R VALUE TEST SET SIZE  (%) : 5.30
3   BIN FREE R VALUE TEST SET COUNT     : 62
3   ESTIMATED ERROR OF BIN FREE R VALUE : 0.043
3
3  NUMBER OF NON-HYDROGEN ATOMS USED IN REFINEMENT.
3   PROTEIN ATOMS            : 0
3   NUCLEIC ACID ATOMS       : 1155
3   HETEROGEN ATOMS          : 42
3   SOLVENT ATOMS            : 69
3
3  B VALUES.
3   FROM WILSON PLOT           (A**2) : 47.80
3   MEAN B VALUE      (OVERALL, A**2) : 54.50
3   OVERALL ANISOTROPIC B VALUE.
3    B11 (A**2) : -8.63000
3    B22 (A**2) : -8.63000
3    B33 (A**2) : 17.26000
3    B12 (A**2) : 0.00000
3    B13 (A**2) : 0.00000
3    B23 (A**2) : 0.00000
3
3  ESTIMATED COORDINATE ERROR.
3   ESD FROM LUZZATI PLOT        (A) : 0.30
3   ESD FROM SIGMAA              (A) : 0.40
3   LOW RESOLUTION CUTOFF        (A) : 5.00
3
3  CROSS-VALIDATED ESTIMATED COORDINATE ERROR.
3   ESD FROM C-V LUZZATI PLOT    (A) : 0.35
3   ESD FROM C-V SIGMAA          (A) : 0.43
3
3  RMS DEVIATIONS FROM IDEAL VALUES.
3   BOND LENGTHS                 (A) : 0.011
3   BOND ANGLES            (DEGREES) : 1.70
3   DIHEDRAL ANGLES        (DEGREES) : 19.20
3   IMPROPER ANGLES        (DEGREES) : 1.54
3
3  ISOTROPIC THERMAL MODEL : RESTRAINED
3
3  ISOTROPIC THERMAL FACTOR RESTRAINTS.    RMS    SIGMA
3   MAIN-CHAIN BOND              (A**2) : NULL  ; NULL
3   MAIN-CHAIN ANGLE             (A**2) : NULL  ; NULL
3   SIDE-CHAIN BOND              (A**2) : NULL  ; NULL
3   SIDE-CHAIN ANGLE             (A**2) : NULL  ; NULL
3
3  BULK SOLVENT MODELING.
3   METHOD USED : FLAT MODEL
3   KSOL        : 0.40
3   BSOL        : 56.72
3
3  NCS MODEL : NULL
3
3  NCS RESTRAINTS.                         RMS   SIGMA/WEIGHT
3   GROUP  1  POSITIONAL            (A) : NULL  ; NULL
3   GROUP  1  B-FACTOR           (A**2) : NULL  ; NULL
3
3  PARAMETER FILE  1  : ION.PARAM
3  PARAMETER FILE  2  : WATER_REP.PARAM
3  PARAMETER FILE  3  : DNA-RNA_REP.PARAM
3  PARAMETER FILE  4  : GTP.PARAM
3  PARAMETER FILE  5  : SAMTEST.PARAM
3  PARAMETER FILE  6  : NULL
3  TOPOLOGY FILE  1   : ION.TOP
3  TOPOLOGY FILE  2   : DNA-RNA.TOP
3  TOPOLOGY FILE  3   : WATER.TOP
3  TOPOLOGY FILE  4   : GTP.TOP
3  TOPOLOGY FILE  5   : SAMTEST.TOP
3  TOPOLOGY FILE  6   : NULL
3
3  OTHER REFINEMENT REMARKS: BULK SOLVENT MODEL USED
4
4 3E5C COMPLIES WITH FORMAT V. 3.15, 01-DEC-08
100
100 THIS ENTRY HAS BEEN PROCESSED BY RCSB ON 21-AUG-08.
100 THE RCSB ID CODE IS RCSB048894.
200
200 EXPERIMENTAL DETAILS
200  EXPERIMENT TYPE                : X-RAY DIFFRACTION
200  DATE OF DATA COLLECTION        : 21-NOV-07; 22-OCT-07
200  TEMPERATURE           (KELVIN) : 100; 100
200  PH                             : 7
200  NUMBER OF CRYSTALS USED        : 2
200
200  SYNCHROTRON              (Y/N) : Y; Y
200  RADIATION SOURCE               : APS; CHESS
200  BEAMLINE                       : 24-ID-E; F1
200  X-RAY GENERATOR MODEL          : NULL; NULL
200  MONOCHROMATIC OR LAUE    (M/L) : M; M
200  WAVELENGTH OR RANGE        (A) : 0.9792; 0.918
200  MONOCHROMATOR                  : NULL; NULL
200  OPTICS                         : NULL; NULL
200
200  DETECTOR TYPE                  : CCD; CCD
200  DETECTOR MANUFACTURER          : ADSC QUANTUM 315; ADSC
200                                   QUANTUM 210
200  INTENSITY-INTEGRATION SOFTWARE : HKL-2000
200  DATA SCALING SOFTWARE          : HKL-2000
200
200  NUMBER OF UNIQUE REFLECTIONS   : 9607
200  RESOLUTION RANGE HIGH      (A) : 2.250
200  RESOLUTION RANGE LOW       (A) : 20.000
200  REJECTION CRITERIA  (SIGMA(I)) : 37.100
200
200 OVERALL.
200  COMPLETENESS FOR RANGE     (%) : 93.3
200  DATA REDUNDANCY                : 9.800
200  R MERGE                    (I) : 0.06900
200  R SYM                      (I) : 0.06500
200  <I/SIGMA(I)> FOR THE DATA SET  : 24.7000
200
200 IN THE HIGHEST RESOLUTION SHELL.
200  HIGHEST RESOLUTION SHELL, RANGE HIGH (A) : 2.25
200  HIGHEST RESOLUTION SHELL, RANGE LOW  (A) : 2.35
200  COMPLETENESS FOR SHELL     (%) : 74.0
200  DATA REDUNDANCY IN SHELL       : 4.70
200  R MERGE FOR SHELL          (I) : 0.37000
200  R SYM FOR SHELL            (I) : 0.41700
200  <I/SIGMA(I)> FOR SHELL         : 1.600
200
200 DIFFRACTION PROTOCOL: SINGLE WAVELENGTH; SINGLE WAVELENGTH
200 METHOD USED TO DETERMINE THE STRUCTURE: SAD+MR
200 SOFTWARE USED: PHASER
200 STARTING MODEL: NULL
200
200 REMARK: NULL
280
280 CRYSTAL
280 SOLVENT CONTENT, VS   (%): 58.91
280 MATTHEWS COEFFICIENT, VM (ANGSTROMS**3/DA): 2.99
280
280 CRYSTALLIZATION CONDITIONS: 40 MM SODIUM CACODYLATE, 80 MM
280  SRCL, 15% MPD, 2 MM SPERMINE-HCL, PH 7, VAPOR DIFFUSION,
280  HANGING DROP, TEMPERATURE 298K
290
290 CRYSTALLOGRAPHIC SYMMETRY
290 SYMMETRY OPERATORS FOR SPACE GROUP: I 41 2 2
290
290      SYMOP   SYMMETRY
290     NNNMMM   OPERATOR
290       1555   X,Y,Z
290       2555   -X+1/2,-Y+1/2,Z+1/2
290       3555   -Y,X+1/2,Z+1/4
290       4555   Y+1/2,-X,Z+3/4
290       5555   -X+1/2,Y,-Z+3/4
290       6555   X,-Y+1/2,-Z+1/4
290       7555   Y+1/2,X+1/2,-Z+1/2
290       8555   -Y,-X,-Z
290       9555   X+1/2,Y+1/2,Z+1/2
290      10555   -X,-Y,Z
290      11555   -Y+1/2,X,Z+3/4
290      12555   Y,-X+1/2,Z+1/4
290      13555   -X,Y+1/2,-Z+1/4
290      14555   X+1/2,-Y,-Z+3/4
290      15555   Y,X,-Z
290      16555   -Y+1/2,-X+1/2,-Z+1/2
290
290     WHERE NNN -> OPERATOR NUMBER
290           MMM -> TRANSLATION VECTOR
290
290 CRYSTALLOGRAPHIC SYMMETRY TRANSFORMATIONS
290 THE FOLLOWING TRANSFORMATIONS OPERATE ON THE ATOM/HETATM
290 RECORDS IN THIS ENTRY TO PRODUCE CRYSTALLOGRAPHICALLY
290 RELATED MOLECULES.
290   SMTRY1   1  1.000000  0.000000  0.000000        0.00000
290   SMTRY2   1  0.000000  1.000000  0.000000        0.00000
290   SMTRY3   1  0.000000  0.000000  1.000000        0.00000
290   SMTRY1   2 -1.000000  0.000000  0.000000       48.90300
290   SMTRY2   2  0.000000 -1.000000  0.000000       48.90300
290   SMTRY3   2  0.000000  0.000000  1.000000       43.56900
290   SMTRY1   3  0.000000 -1.000000  0.000000        0.00000
290   SMTRY2   3  1.000000  0.000000  0.000000       48.90300
290   SMTRY3   3  0.000000  0.000000  1.000000       21.78450
290   SMTRY1   4  0.000000  1.000000  0.000000       48.90300
290   SMTRY2   4 -1.000000  0.000000  0.000000        0.00000
290   SMTRY3   4  0.000000  0.000000  1.000000       65.35350
290   SMTRY1   5 -1.000000  0.000000  0.000000       48.90300
290   SMTRY2   5  0.000000  1.000000  0.000000        0.00000
290   SMTRY3   5  0.000000  0.000000 -1.000000       65.35350
290   SMTRY1   6  1.000000  0.000000  0.000000        0.00000
290   SMTRY2   6  0.000000 -1.000000  0.000000       48.90300
290   SMTRY3   6  0.000000  0.000000 -1.000000       21.78450
290   SMTRY1   7  0.000000  1.000000  0.000000       48.90300
290   SMTRY2   7  1.000000  0.000000  0.000000       48.90300
290   SMTRY3   7  0.000000  0.000000 -1.000000       43.56900
290   SMTRY1   8  0.000000 -1.000000  0.000000        0.00000
290   SMTRY2   8 -1.000000  0.000000  0.000000        0.00000
290   SMTRY3   8  0.000000  0.000000 -1.000000        0.00000
290   SMTRY1   9  1.000000  0.000000  0.000000       48.90300
290   SMTRY2   9  0.000000  1.000000  0.000000       48.90300
290   SMTRY3   9  0.000000  0.000000  1.000000       43.56900
290   SMTRY1  10 -1.000000  0.000000  0.000000        0.00000
290   SMTRY2  10  0.000000 -1.000000  0.000000        0.00000
290   SMTRY3  10  0.000000  0.000000  1.000000        0.00000
290   SMTRY1  11  0.000000 -1.000000  0.000000       48.90300
290   SMTRY2  11  1.000000  0.000000  0.000000        0.00000
290   SMTRY3  11  0.000000  0.000000  1.000000       65.35350
290   SMTRY1  12  0.000000  1.000000  0.000000        0.00000
290   SMTRY2  12 -1.000000  0.000000  0.000000       48.90300
290   SMTRY3  12  0.000000  0.000000  1.000000       21.78450
290   SMTRY1  13 -1.000000  0.000000  0.000000        0.00000
290   SMTRY2  13  0.000000  1.000000  0.000000       48.90300
290   SMTRY3  13  0.000000  0.000000 -1.000000       21.78450
290   SMTRY1  14  1.000000  0.000000  0.000000       48.90300
290   SMTRY2  14  0.000000 -1.000000  0.000000        0.00000
290   SMTRY3  14  0.000000  0.000000 -1.000000       65.35350
290   SMTRY1  15  0.000000  1.000000  0.000000        0.00000
290   SMTRY2  15  1.000000  0.000000  0.000000        0.00000
290   SMTRY3  15  0.000000  0.000000 -1.000000        0.00000
290   SMTRY1  16  0.000000 -1.000000  0.000000       48.90300
290   SMTRY2  16 -1.000000  0.000000  0.000000       48.90300
290   SMTRY3  16  0.000000  0.000000 -1.000000       43.56900
290
290 REMARK: NULL
300
300 BIOMOLECULE: 1
300 SEE REMARK 350 FOR THE AUTHOR PROVIDED AND/OR PROGRAM
300 GENERATED ASSEMBLY INFORMATION FOR THE STRUCTURE IN
300 THIS ENTRY. THE REMARK MAY ALSO PROVIDE INFORMATION ON
300 BURIED SURFACE AREA.
350
350 COORDINATES FOR A COMPLETE MULTIMER REPRESENTING THE KNOWN
350 BIOLOGICALLY SIGNIFICANT OLIGOMERIZATION STATE OF THE
350 MOLECULE CAN BE GENERATED BY APPLYING BIOMT TRANSFORMATIONS
350 GIVEN BELOW.  BOTH NON-CRYSTALLOGRAPHIC AND
350 CRYSTALLOGRAPHIC OPERATIONS ARE GIVEN.
350
350 BIOMOLECULE: 1
350 AUTHOR DETERMINED BIOLOGICAL UNIT: MONOMERIC
350 SOFTWARE DETERMINED QUATERNARY STRUCTURE: MONOMERIC
350 SOFTWARE USED: PISA
350 APPLY THE FOLLOWING TO CHAINS: A
350   BIOMT1   1  1.000000  0.000000  0.000000        0.00000
350   BIOMT2   1  0.000000  1.000000  0.000000        0.00000
350   BIOMT3   1  0.000000  0.000000  1.000000        0.00000
500
500 GEOMETRY AND STEREOCHEMISTRY
500 SUBTOPIC: CLOSE CONTACTS IN SAME ASYMMETRIC UNIT
500
500 THE FOLLOWING ATOMS ARE IN CLOSE CONTACT.
500
500  ATM1  RES C  SSEQI   ATM2  RES C  SSEQI           DISTANCE
500   O1B  GTP A     1     O    HOH A   284              1.98
500   O2A  GTP A     1     O    HOH A   275              2.17
500
500 REMARK: NULL
500
500 GEOMETRY AND STEREOCHEMISTRY
500 SUBTOPIC: COVALENT BOND ANGLES
500
500 THE STEREOCHEMICAL PARAMETERS OF THE FOLLOWING RESIDUES
500 HAVE VALUES WHICH DEVIATE FROM EXPECTED VALUES BY MORE
500 THAN 6*RMSD (M=MODEL NUMBER; RES=RESIDUE NAME; C=CHAIN
500 IDENTIFIER; SSEQ=SEQUENCE NUMBER; I=INSERTION CODE).
500
500 STANDARD TABLE:
500 FORMAT: (10X,I3,1X,A3,1X,A1,I4,A1,3(1X,A4,2X),12X,F5.1)
500
500 EXPECTED VALUES PROTEIN: ENGH AND HUBER, 1999
500 EXPECTED VALUES NUCLEIC ACID: CLOWNEY ET AL 1996
500
500  M RES CSSEQI ATM1   ATM2   ATM3
500      C A   4   O4' -  C1' -  N1  ANGL. DEV. =   4.5 DEGREES
500      G A  28   C3' -  O3' -  P   ANGL. DEV. =   8.8 DEGREES
500      G A  36   O4' -  C1' -  N9  ANGL. DEV. =   6.4 DEGREES
500      G A  48   O4' -  C1' -  N9  ANGL. DEV. =   4.4 DEGREES
500
500 REMARK: NULL
620
620 METAL COORDINATION
620  (M=MODEL NUMBER; RES=RESIDUE NAME; C=CHAIN IDENTIFIER;
620  SSEQ=SEQUENCE NUMBER; I=INSERTION CODE):
620
620 COORDINATION ANGLES FOR:  M RES CSSEQI METAL
620                              SR A 207  SR
620 N RES CSSEQI ATOM
620 1   C A   6   OP2
620 2 HOH A 282   O   150.6
620 N                    1
800
800 SITE
800 SITE_IDENTIFIER: AC1
800 EVIDENCE_CODE: SOFTWARE
800 SITE_DESCRIPTION: BINDING SITE FOR RESIDUE SR A 204
800 SITE_IDENTIFIER: AC3
800 EVIDENCE_CODE: SOFTWARE
800 SITE_DESCRIPTION: BINDING SITE FOR RESIDUE SR A 207
800 SITE_IDENTIFIER: AC4
800 EVIDENCE_CODE: SOFTWARE
800 SITE_DESCRIPTION: BINDING SITE FOR RESIDUE SR A 208
800 SITE_IDENTIFIER: AC7
800 EVIDENCE_CODE: SOFTWARE
800 SITE_DESCRIPTION: BINDING SITE FOR RESIDUE SAM A 216
900
900 RELATED ENTRIES
900 RELATED ID: 3E5E   RELATED DB: PDB
900 RELATED ID: 3E5F   RELATED DB: PDB

>  <DBREF>
3E5C A    1    53  PDB    3E5C     3E5C             1     53

>  <SEQRES>
1 A   53  GTP   U   U   C   C   C   G   A   A   A   G   G   A
2 A   53    U   G   G   C   G   G   A   A   A   C   G   C   C
3 A   53    A   G   A   U   G   C   C   U   U   G   U   A   A
4 A   53    C   C   G   A   A   A   G   G   G   G   G   A   A
5 A   53    U

>  <MODRES>
3E5C GTP A    1    G  GUANOSINE-5'-TRIPHOSPHATE

>  <HET>
GTP  A   1      32
SR  A 201       1
SR  A 202       1
SR  A 203       1
SR  A 204       1
SR  A 205       1
SR  A 206       1
SR  A 207       1
SR  A 208       1
SR  A 209       1
SR  A 210       1
SR  A 211       1
SR  A 212       1
SR  A 213       1
SR  A 214       1
SR  A 215       1
SAM  A 216      27

>  <HETNAM>
GTP GUANOSINE-5'-TRIPHOSPHATE
SR STRONTIUM ION
SAM S-ADENOSYLMETHIONINE

>  <FORMUL>
1  GTP    C10 H16 N5 O14 P3
2   SR    15(SR 2+)
17  SAM    C15 H22 N6 O5 S
18  HOH   *69(H2 O)

>  <LINK>
O2A GTP A   1                SR    SR A 212     1555   1555  2.65
OP2   C A   6                SR    SR A 207     1555   1555  2.56
O4    U A  14                SR    SR A 213     1555   1555  2.53
OP2   A A  38                SR    SR A 215     1555   1555  2.41
SR    SR A 207                 O   HOH A 282     1555   1555  2.55
SR    SR A 208                 O   HOH A 224     1555   1555  2.41
O3' GTP A   1                 P     U A   2     1555   1555  1.70

>  <SITE>
1 AC1  1 HOH A 223
1 AC3  2 HOH A 219  HOH A 282
1 AC4  1 HOH A 224
1 AC7  2 HOH A 239  HOH A 273

>  <ORIGX1>
1.000000  0.000000  0.000000        0.00000

>  <ORIGX2>
0.000000  1.000000  0.000000        0.00000

>  <ORIGX3>
0.000000  0.000000  1.000000        0.00000

>  <SCALE1>
0.010224  0.000000  0.000000        0.00000

>  <SCALE2>
0.000000  0.010224  0.000000        0.00000

>  <SCALE3>
0.000000  0.000000  0.011476        0.00000

$$$$
