REMARK  7 active torsions:
REMARK  status: ('A' for Active; 'I' for Inactive)
REMARK    1  A    between atoms: CA_2  and  C_3 
REMARK    2  A    between atoms: CA_2  and  C_6 
REMARK    3  A    between atoms: C_6  and  C_7 
REMARK    4  A    between atoms: C_7  and  S_8 
REMARK    5  A    between atoms: S_8  and  C_10 
REMARK    6  A    between atoms: C_11  and  C_10 
REMARK    7  A    between atoms: C_17  and  N_18 
ROOT
ATOM      1  C   UNL d   1      12.125  -9.913  23.872  0.00  0.00     0.160 C 
ATOM      2  O   UNL d   1      12.057  -9.621  22.488  0.00  0.00    -0.333 OA
ATOM      3  C   UNL d   1      12.834 -11.246  23.972  0.00  0.00     0.215 C 
ATOM      4  O   UNL d   1      11.848 -12.236  24.083  0.00  0.00    -0.218 OA
ATOM      5  C   UNL d   1      13.570 -11.391  22.659  0.00  0.00     0.234 C 
ATOM      6  O   UNL d   1      13.674 -12.736  22.285  0.00  0.00    -0.216 OA
ATOM      7  C   UNL d   1      12.678 -10.632  21.709  0.00  0.00     0.241 C 
ENDROOT
BRANCH   1   8
ATOM      8  C   UNL d   1      12.897  -8.827  24.613  0.00  0.00     0.081 C 
BRANCH   8   9
ATOM      9  S   UNL d   1      12.483  -7.143  24.061  0.00  0.00    -0.176 SA
ATOM     10  C   UNL d   1      11.401  -6.648  25.426  0.00  0.00     0.059 C 
BRANCH   9  11
ATOM     11  C   UNL d   1      13.983  -6.200  24.447  0.00  0.00     0.051 C 
BRANCH  11  12
ATOM     12  C   UNL d   1      15.209  -7.031  24.823  0.00  0.00     0.061 C 
BRANCH  12  13
ATOM     13  CA  UNL d   1      16.288  -6.210  25.520  0.00  0.00     0.388 C 
ATOM     14  N   UNL d   1      17.637  -6.689  25.085  0.00  0.00     0.628 N 
BRANCH  13  15
ATOM     15  C   UNL d   1      16.105  -6.208  27.051  0.00  0.00     0.224 C 
ATOM     16  O   UNL d   1      17.023  -6.549  27.811  0.00  0.00    -0.646 OA
ATOM     17  OXT UNL d   1      15.037  -5.852  27.578  0.00  0.00    -0.646 OA
ENDBRANCH  13  15
ENDBRANCH  12  13
ENDBRANCH  11  12
ENDBRANCH   9  11
ENDBRANCH   8   9
ENDBRANCH   1   8
BRANCH   7  18
ATOM     18  N   UNL d   1      13.363  -9.990  20.575  0.00  0.00    -0.270 N 
ATOM     19  C   UNL d   1      13.053 -10.244  19.271  0.00  0.00     0.182 A 
ATOM     20  N   UNL d   1      13.841  -9.488  18.477  0.00  0.00    -0.219 NA
ATOM     21  C   UNL d   1      14.644  -8.737  19.265  0.00  0.00     0.155 A 
ATOM     22  C   UNL d   1      15.625  -7.794  18.964  0.00  0.00     0.206 A 
ATOM     23  C   UNL d   1      14.351  -9.034  20.596  0.00  0.00     0.170 A 
ATOM     24  N   UNL d   1      15.896  -7.500  17.692  0.00  0.00    -0.125 N 
ATOM     25  N   UNL d   1      16.303  -7.161  19.995  0.00  0.00    -0.202 NA
ATOM     26  C   UNL d   1      16.005  -7.473  21.312  0.00  0.00     0.202 A 
ATOM     27  N   UNL d   1      15.038  -8.418  21.597  0.00  0.00    -0.205 NA
ENDBRANCH   7  18
TORSDOF 7
