@<TRIPOS>MOLECULE
ligand.pdb
 27 29 0 0 0
SMALL
GASTEIGER

@<TRIPOS>ATOM
      1 N          17.6370   -6.6890   25.0850 N.3     1  UNL1       -0.1208
      2 CA         16.2880   -6.2100   25.5200 C.3     1  UNL1        0.1952
      3 C          16.1050   -6.2080   27.0510 C.2     1  UNL1        0.3819
      4 O          17.0230   -6.5490   27.8110 O.co2   1  UNL1       -0.2441
      5 OXT        15.0370   -5.8520   27.5780 O.co2   1  UNL1       -0.2441
      6 C          15.2090   -7.0310   24.8230 C.3     1  UNL1        0.0414
      7 C          13.9830   -6.2000   24.4470 C.3     1  UNL1        0.0503
      8 S          12.4830   -7.1430   24.0610 S.3     1  UNL1       -0.1761
      9 C          11.4010   -6.6480   25.4260 C.3     1  UNL1        0.0590
     10 C          12.8970   -8.8270   24.6130 C.3     1  UNL1        0.0805
     11 C          12.1250   -9.9130   23.8720 C.3     1  UNL1        0.1602
     12 O          12.0570   -9.6210   22.4880 O.3     1  UNL1       -0.3324
     13 C          12.8340  -11.2460   23.9720 C.3     1  UNL1        0.2144
     14 O          11.8480  -12.2360   24.0830 O.3     1  UNL1       -0.2176
     15 C          13.5700  -11.3910   22.6590 C.3     1  UNL1        0.2336
     16 O          13.6740  -12.7360   22.2850 O.3     1  UNL1       -0.2155
     17 C          12.6780  -10.6320   21.7090 C.3     1  UNL1        0.2409
     18 N          13.3630   -9.9900   20.5750 N.ar    1  UNL1       -0.2693
     19 C          13.0530  -10.2440   19.2710 C.ar    1  UNL1        0.1816
     20 N          13.8410   -9.4880   18.4770 N.ar    1  UNL1       -0.2193
     21 C          14.6440   -8.7370   19.2650 C.ar    1  UNL1        0.1518
     22 C          15.6250   -7.7940   18.9640 C.ar    1  UNL1        0.1919
     23 N          15.8960   -7.5000   17.6920 N.pl3   1  UNL1       -0.1054
     24 N          16.3030   -7.1610   19.9950 N.ar    1  UNL1       -0.2040
     25 C          16.0050   -7.4730   21.3120 C.ar    1  UNL1        0.2016
     26 N          15.0380   -8.4180   21.5970 N.ar    1  UNL1       -0.2048
     27 C          14.3510   -9.0340   20.5960 C.ar    1  UNL1        0.1692
@<TRIPOS>BOND
     1     2     3    1
     2     2     6    1
     3     2     1    1
     4     3     4   ar
     5     3     5   ar
     6     6     7    1
     7     7     8    1
     8     8     9    1
     9     8    10    1
    10    11    12    1
    11    11    13    1
    12    11    10    1
    13    12    17    1
    14    13    14    1
    15    13    15    1
    16    15    16    1
    17    15    17    1
    18    17    18    1
    19    18    19   ar
    20    18    27   ar
    21    19    20   ar
    22    20    21   ar
    23    21    22   ar
    24    21    27   ar
    25    22    23    1
    26    22    24   ar
    27    24    25   ar
    28    25    26   ar
    29    26    27   ar
