@<TRIPOS>MOLECULE
1RAW_AMP_A_37
 37 39 0 0 0
SMALL
GASTEIGER

@<TRIPOS>ATOM
      1 P           1.2441   -0.8913    0.7995 P.3     1  UNL1        0.4724
      2 O           0.9577   -2.2997    0.4023 O.2     1  UNL1       -0.2275
      3 O           1.0648   -0.6993    2.3757 O.3     1  UNL1       -0.3026
      4 O           0.1634    0.1181    0.1911 O.3     1  UNL1       -0.3026
      5 O           2.6923   -0.3432    0.4314 O.3     1  UNL1       -0.2841
      6 C           3.1410    0.9195    0.9031 C.3     1  UNL1        0.0878
      7 C           4.6777    0.9384    0.9126 C.3     1  UNL1        0.1134
      8 H           5.0286    0.1474    1.5890 H       1  UNL1        0.0647
      9 O           5.2238    0.6517   -0.3903 O.3     1  UNL1       -0.3456
     10 C           6.5861    1.1206   -0.3518 C.3     1  UNL1        0.1667
     11 H           7.2158    0.3530    0.1169 H       1  UNL1        0.0866
     12 C           6.5469    2.4171    0.4659 C.3     1  UNL1        0.1285
     13 H           6.4668    3.2960   -0.1847 H       1  UNL1        0.0665
     14 C           5.2636    2.2958    1.2977 C.3     1  UNL1        0.1135
     15 H           4.5822    3.1070    1.0189 H       1  UNL1        0.0647
     16 O           5.5016    2.3870    2.6973 O.3     1  UNL1       -0.3864
     17 O           7.6911    2.6040    1.3051 O.3     1  UNL1       -0.3847
     18 N           7.0790    1.3011   -1.7047 N.ar    1  UNL1       -0.2855
     19 C           6.4281    0.9735   -2.8647 C.ar    1  UNL1        0.1004
     20 N           7.1448    1.2568   -3.9319 N.ar    1  UNL1       -0.2306
     21 C           8.3232    1.7721   -3.4378 C.ar    1  UNL1        0.1473
     22 C           9.4832    2.2430   -4.0746 C.ar    1  UNL1        0.1472
     23 N           9.6210    2.2880   -5.4561 N.pl3   1  UNL1       -0.3413
     24 N          10.5162    2.6531   -3.3053 N.ar    1  UNL1       -0.2188
     25 C          10.3667    2.6235   -1.9619 C.ar    1  UNL1        0.1205
     26 N           9.2938    2.2240   -1.2350 N.ar    1  UNL1       -0.2159
     27 C           8.3099    1.7966   -2.0508 C.ar    1  UNL1        0.1674
     28 H           0.9293   -1.5646    2.8050 H       1  UNL1        0.2220
     29 H          -0.5701   -0.3949   -0.2001 H       1  UNL1        0.2220
     30 H           2.7717    1.1002    1.9191 H       1  UNL1        0.0592
     31 H           2.7446    1.6996    0.2432 H       1  UNL1        0.0592
     32 H           6.3937    2.7849    2.7901 H       1  UNL1        0.2100
     33 H           8.4715    2.6332    0.7093 H       1  UNL1        0.2101
     34 H           5.4388    0.5315   -2.8742 H       1  UNL1        0.1030
     35 H           8.9731    1.6788   -5.9453 H       1  UNL1        0.1438
     36 H          10.5866    2.2841   -5.7545 H       1  UNL1        0.1438
     37 H          11.2284    2.9669   -1.3940 H       1  UNL1        0.1048
@<TRIPOS>BOND
     1     1     2    2
     2     1     3    1
     3     1     4    1
     4     1     5    1
     5     3    28    1
     6     4    29    1
     7     5     6    1
     8     6     7    1
     9     6    30    1
    10     6    31    1
    11     7     8    1
    12     7     9    1
    13     7    14    1
    14     9    10    1
    15    10    12    1
    16    10    18    1
    17    10    11    1
    18    12    13    1
    19    12    14    1
    20    12    17    1
    21    14    15    1
    22    14    16    1
    23    16    32    1
    24    17    33    1
    25    18    19   ar
    26    18    27   ar
    27    19    20   ar
    28    19    34    1
    29    20    21   ar
    30    21    22   ar
    31    21    27   ar
    32    22    23    1
    33    22    24   ar
    34    23    35    1
    35    23    36    1
    36    24    25   ar
    37    25    26   ar
    38    25    37    1
    39    26    27   ar
