REMARK  6 active torsions:
REMARK  status: ('A' for Active; 'I' for Inactive)
REMARK    1  A    between atoms: C_1  and  O_32 
REMARK    2  A    between atoms: C_5  and  C_6 
REMARK    3  A    between atoms: C_12  and  O_20 
REMARK    4  A    between atoms: C_16  and  C_17 
REMARK    5  A    between atoms: C_26  and  O_20 
REMARK    6  A    between atoms: C_28  and  O_32 
ROOT
ATOM      1  C   UNL d   1      -5.527   4.668   1.600  0.00  0.00     0.334 C 
ATOM      2  C   UNL d   1      -6.554   5.426   0.770  0.00  0.00     0.083 C 
ATOM      3  C   UNL d   1      -7.322   6.417   1.645  0.00  0.00     0.334 C 
ATOM      4  C   UNL d   1      -6.348   7.412   2.272  0.00  0.00     0.188 C 
ATOM      5  C   UNL d   1      -5.303   6.667   3.104  0.00  0.00     0.210 C 
ATOM      6  C   UNL d   1      -4.559   5.657   2.231  0.00  0.00     0.188 C 
ATOM      7  N   UNL d   1      -4.758   3.731   0.752  0.00  0.00     0.619 N 
ATOM      8  N   UNL d   1      -8.377   7.088   0.842  0.00  0.00     0.619 N 
ATOM      9  O   UNL d   1      -4.382   7.594   3.663  0.00  0.00    -0.218 OA
ENDROOT
BRANCH   6  10
ATOM     10  O   UNL d   1      -3.589   4.948   3.023  0.00  0.00    -0.327 OA
BRANCH  10  11
ATOM     11  C   UNL d   1      -2.301   5.445   2.953  0.00  0.00     0.269 C 
ATOM     12  C   UNL d   1      -1.487   4.655   1.931  0.00  0.00     0.248 C 
ATOM     13  C   UNL d   1      -1.384   3.201   2.371  0.00  0.00     0.369 C 
ATOM     14  O   UNL d   1      -2.115   4.727   0.659  0.00  0.00    -0.216 OA
ATOM     15  C   UNL d   1      -0.797   3.138   3.776  0.00  0.00     0.221 C 
ATOM     16  N   UNL d   1      -0.594   2.406   1.406  0.00  0.00     0.622 N 
ATOM     17  C   UNL d   1      -1.639   3.983   4.728  0.00  0.00     0.183 C 
ATOM     18  O   UNL d   1      -0.761   1.789   4.222  0.00  0.00    -0.218 OA
ATOM     19  O   UNL d   1      -1.706   5.345   4.253  0.00  0.00    -0.326 OA
BRANCH  17  20
ATOM     20  C   UNL d   1      -1.061   4.023   6.129  0.00  0.00     0.214 C 
ATOM     21  O   UNL d   1       0.259   4.548   6.131  0.00  0.00    -0.218 OA
ENDBRANCH  17  20
ENDBRANCH  10  11
ENDBRANCH   6  10
BRANCH   4  22
ATOM     22  O   UNL d   1      -7.061   8.350   3.104  0.00  0.00    -0.327 OA
BRANCH  22  23
ATOM     23  C   UNL d   1      -6.494   9.612   3.222  0.00  0.00     0.274 C 
ATOM     24  C   UNL d   1      -6.746  10.177   4.621  0.00  0.00     0.360 C 
ATOM     25  C   UNL d   1      -8.238  10.360   4.855  0.00  0.00     0.080 C 
ATOM     26  N   UNL d   1      -6.121   9.326   5.661  0.00  0.00     0.621 N 
ATOM     27  C   UNL d   1      -8.815  11.231   3.751  0.00  0.00     0.184 C 
ATOM     28  C   UNL d   1      -8.503  10.612   2.389  0.00  0.00     0.187 C 
ATOM     29  O   UNL d   1     -10.220  11.356   3.916  0.00  0.00    -0.221 OA
ATOM     30  O   UNL d   1      -7.076  10.462   2.226  0.00  0.00    -0.327 OA
BRANCH  28  31
ATOM     31  C   UNL d   1      -9.000  11.461   1.233  0.00  0.00     0.370 C 
ATOM     32  N   UNL d   1      -8.368  12.802   1.233  0.00  0.00     0.621 N 
ENDBRANCH  28  31
ENDBRANCH  22  23
ENDBRANCH   4  22
TORSDOF 6
