ligands/ligand.pdb
 OpenBabel10091713573D

 32 34  0  0  1  0  0  0  0  0999 V2000
   -2.3010    5.4450    2.9530 C   0  0  2  0  0  0  0  0  0  0  0  0
   -1.4870    4.6550    1.9310 C   0  0  1  0  0  0  0  0  0  0  0  0
   -1.3840    3.2010    2.3710 C   0  0  2  0  0  0  0  0  0  0  0  0
   -0.7970    3.1380    3.7760 C   0  0  1  0  0  0  0  0  0  0  0  0
   -1.6390    3.9830    4.7280 C   0  0  1  0  0  0  0  0  0  0  0  0
   -1.0610    4.0230    6.1290 C   0  0  0  0  0  0  0  0  0  0  0  0
   -2.1150    4.7270    0.6590 O   0  0  0  0  0  0  0  0  0  0  0  0
   -0.5940    2.4060    1.4060 N   0  0  0  0  0  0  0  0  0  0  0  0
   -0.7610    1.7890    4.2220 O   0  0  0  0  0  0  0  0  0  0  0  0
   -1.7060    5.3450    4.2530 O   0  0  0  0  0  0  0  0  0  0  0  0
    0.2590    4.5480    6.1310 O   0  0  0  0  0  0  0  0  0  0  0  0
   -6.4940    9.6120    3.2220 C   0  0  1  0  0  0  0  0  0  0  0  0
   -6.7460   10.1770    4.6210 C   0  0  1  0  0  0  0  0  0  0  0  0
   -8.2380   10.3600    4.8550 C   0  0  0  0  0  0  0  0  0  0  0  0
   -8.8150   11.2310    3.7510 C   0  0  1  0  0  0  0  0  0  0  0  0
   -8.5030   10.6120    2.3890 C   0  0  1  0  0  0  0  0  0  0  0  0
   -9.0000   11.4610    1.2330 C   0  0  0  0  0  0  0  0  0  0  0  0
   -6.1210    9.3260    5.6610 N   0  0  0  0  0  0  0  0  0  0  0  0
   -8.3680   12.8020    1.2330 N   0  0  0  0  0  0  0  0  0  0  0  0
   -7.0610    8.3500    3.1040 O   0  0  0  0  0  0  0  0  0  0  0  0
  -10.2200   11.3560    3.9160 O   0  0  0  0  0  0  0  0  0  0  0  0
   -7.0760   10.4620    2.2260 O   0  0  0  0  0  0  0  0  0  0  0  0
   -5.5270    4.6680    1.6000 C   0  0  2  0  0  0  0  0  0  0  0  0
   -6.5540    5.4260    0.7700 C   0  0  0  0  0  0  0  0  0  0  0  0
   -7.3220    6.4170    1.6450 C   0  0  1  0  0  0  0  0  0  0  0  0
   -6.3480    7.4120    2.2720 C   0  0  2  0  0  0  0  0  0  0  0  0
   -5.3030    6.6670    3.1040 C   0  0  1  0  0  0  0  0  0  0  0  0
   -4.5590    5.6570    2.2310 C   0  0  1  0  0  0  0  0  0  0  0  0
   -4.7580    3.7310    0.7520 N   0  0  0  0  0  0  0  0  0  0  0  0
   -8.3770    7.0880    0.8420 N   0  0  0  0  0  0  0  0  0  0  0  0
   -4.3820    7.5940    3.6630 O   0  0  0  0  0  0  0  0  0  0  0  0
   -3.5890    4.9480    3.0230 O   0  0  0  0  0  0  0  0  0  0  0  0
  1  2  1  0  0  0  0
  1 10  1  0  0  0  0
  1 32  1  1  0  0  0
  2  3  1  0  0  0  0
  2  7  1  6  0  0  0
  3  4  1  0  0  0  0
  3  8  1  6  0  0  0
  4  5  1  0  0  0  0
  4  9  1  1  0  0  0
  5  6  1  1  0  0  0
  5 10  1  0  0  0  0
  6 11  1  0  0  0  0
 12 13  1  0  0  0  0
 12 20  1  1  0  0  0
 12 22  1  0  0  0  0
 13 14  1  0  0  0  0
 13 18  1  1  0  0  0
 14 15  1  0  0  0  0
 15 16  1  0  0  0  0
 15 21  1  1  0  0  0
 16 17  1  6  0  0  0
 16 22  1  0  0  0  0
 17 19  1  0  0  0  0
 23 24  1  0  0  0  0
 23 28  1  0  0  0  0
 23 29  1  6  0  0  0
 24 25  1  0  0  0  0
 25 26  1  0  0  0  0
 25 30  1  6  0  0  0
 26 27  1  0  0  0  0
 26 20  1  1  0  0  0
 27 28  1  0  0  0  0
 27 31  1  6  0  0  0
 28 32  1  1  0  0  0
M  END
>  <HEADER>
Generated with yapdb_parser, version: unknown (https://github.com/m4rx9/rna-pdb-tools) Wed Jan 27 17:52:27 2016

$$$$
