@<TRIPOS>MOLECULE
ligands/ligand.pdb
 32 34 0 0 0
SMALL
GASTEIGER

@<TRIPOS>ATOM
      1 C          -2.3010    5.4450    2.9530 C.3     1  UNL1        0.2684
      2 C          -1.4870    4.6550    1.9310 C.3     1  UNL1        0.2279
      3 C          -1.3840    3.2010    2.3710 C.3     1  UNL1        0.1599
      4 C          -0.7970    3.1380    3.7760 C.3     1  UNL1        0.2017
      5 C          -1.6390    3.9830    4.7280 C.3     1  UNL1        0.1824
      6 C          -1.0610    4.0230    6.1290 C.3     1  UNL1        0.2142
      7 O          -2.1150    4.7270    0.6590 O.3     1  UNL1       -0.2161
      8 N          -0.5940    2.4060    1.4060 N.3     1  UNL1       -0.1272
      9 O          -0.7610    1.7890    4.2220 O.3     1  UNL1       -0.2188
     10 O          -1.7060    5.3450    4.2530 O.3     1  UNL1       -0.3257
     11 O           0.2590    4.5480    6.1310 O.3     1  UNL1       -0.2176
     12 C          -6.4940    9.6120    3.2220 C.3     1  UNL1        0.2534
     13 C          -6.7460   10.1770    4.6210 C.3     1  UNL1        0.1506
     14 C          -8.2380   10.3600    4.8550 C.3     1  UNL1        0.0597
     15 C          -8.8150   11.2310    3.7510 C.3     1  UNL1        0.1821
     16 C          -8.5030   10.6120    2.3890 C.3     1  UNL1        0.1670
     17 C          -9.0000   11.4610    1.2330 C.3     1  UNL1        0.1414
     18 N          -6.1210    9.3260    5.6610 N.3     1  UNL1       -0.1275
     19 N          -8.3680   12.8020    1.2330 N.3     1  UNL1       -0.1286
     20 O          -7.0610    8.3500    3.1040 O.3     1  UNL1       -0.3277
     21 O         -10.2200   11.3560    3.9160 O.3     1  UNL1       -0.2204
     22 O          -7.0760   10.4620    2.2260 O.3     1  UNL1       -0.3278
     23 C          -5.5270    4.6680    1.6000 C.3     1  UNL1        0.1231
     24 C          -6.5540    5.4260    0.7700 C.3     1  UNL1        0.0432
     25 C          -7.3220    6.4170    1.6450 C.3     1  UNL1        0.1231
     26 C          -6.3480    7.4120    2.2720 C.3     1  UNL1        0.1680
     27 C          -5.3030    6.6670    3.1040 C.3     1  UNL1        0.2088
     28 C          -4.5590    5.6570    2.2310 C.3     1  UNL1        0.1680
     29 N          -4.7580    3.7310    0.7520 N.3     1  UNL1       -0.1302
     30 N          -8.3770    7.0880    0.8420 N.3     1  UNL1       -0.1302
     31 O          -4.3820    7.5940    3.6630 O.3     1  UNL1       -0.2178
     32 O          -3.5890    4.9480    3.0230 O.3     1  UNL1       -0.3269
@<TRIPOS>BOND
     1     1     2    1
     2     1    10    1
     3     1    32    1
     4     2     3    1
     5     2     7    1
     6     3     4    1
     7     3     8    1
     8     4     5    1
     9     4     9    1
    10     5     6    1
    11     5    10    1
    12     6    11    1
    13    12    13    1
    14    12    20    1
    15    12    22    1
    16    13    14    1
    17    13    18    1
    18    14    15    1
    19    15    16    1
    20    15    21    1
    21    16    17    1
    22    16    22    1
    23    17    19    1
    24    23    24    1
    25    23    28    1
    26    23    29    1
    27    24    25    1
    28    25    26    1
    29    25    30    1
    30    26    27    1
    31    26    20    1
    32    27    28    1
    33    27    31    1
    34    28    32    1
