REMARK  1 active torsions:
REMARK  status: ('A' for Active; 'I' for Inactive)
REMARK    1  A    between atoms: C_9  and  N_10 
ROOT
ATOM      1  N   UNL d   1      -1.446   1.145  -0.006  0.00  0.00    -0.244 NA
ATOM      2  C   UNL d   1      -2.239   0.116  -0.007  0.00  0.00     0.097 A 
ATOM      3  C   UNL d   1      -1.599  -1.250  -0.008  0.00  0.00     0.095 A 
ATOM      4  C   UNL d   1      -0.223  -0.734  -0.008  0.00  0.00     0.064 A 
ATOM      5  C   UNL d   1       1.030  -1.457  -0.006  0.00  0.00     0.270 A 
ATOM      6  O   UNL d   1       1.087  -2.679  -0.006  0.00  0.00    -0.267 OA
ATOM      7  N   UNL d   1       2.135  -0.646   0.000  0.00  0.00    -0.154 N 
ATOM      8  H   UNL d   1       3.029  -1.107   0.008  0.00  0.00     0.187 HD
ATOM      9  C   UNL d   1       2.055   0.720   0.010  0.00  0.00     0.703 A 
ATOM     10  N   UNL d   1       0.928   1.361   0.003  0.00  0.00    -0.044 NA
ATOM     11  C   UNL d   1      -0.195   0.595  -0.005  0.00  0.00     0.179 A 
ENDROOT
BRANCH   9  12
ATOM     12  N   UNL d   1       3.223   1.396   0.031  0.00  0.00    -0.233 N 
ATOM     13  H   UNL d   1       4.129   0.962  -0.029  0.00  0.00     0.174 HD
ATOM     14  H   UNL d   1       3.169   2.407  -0.012  0.00  0.00     0.174 HD
ENDBRANCH   9  12
TORSDOF 1
