@<TRIPOS>MOLECULE
4LVW_7DG_A_101
 17 18 0 0 0
SMALL
GASTEIGER

@<TRIPOS>ATOM
      1 N          -1.4460    1.1447   -0.0065 N.2     1  UNL1       -0.2397
      2 C          -2.2391    0.1164   -0.0071 C.2     1  UNL1        0.0121
      3 C          -1.5986   -1.2496   -0.0077 C.3     1  UNL1        0.0167
      4 C          -0.2230   -0.7341   -0.0077 C.ar    1  UNL1        0.0662
      5 C           1.0305   -1.4568   -0.0057 C.ar    1  UNL1        0.2582
      6 O           1.0874   -2.6787   -0.0060 O.2     1  UNL1       -0.2674
      7 N           2.1346   -0.6461    0.0002 N.ar    1  UNL1       -0.2950
      8 H           3.0285   -1.1067    0.0077 H       1  UNL1        0.1716
      9 C           2.0550    0.7200    0.0096 C.ar    1  UNL1        0.1949
     10 N           3.2230    1.3961    0.0311 N.pl3   1  UNL1       -0.3289
     11 N           0.9280    1.3615    0.0026 N.ar    1  UNL1       -0.1966
     12 C          -0.1951    0.5950   -0.0053 C.ar    1  UNL1        0.1644
     13 H          -3.3354    0.2096   -0.0069 H       1  UNL1        0.0786
     14 H          -1.8694   -1.7982   -0.9114 H       1  UNL1        0.0373
     15 H          -1.8695   -1.7989    0.8956 H       1  UNL1        0.0373
     16 H           4.1294    0.9616   -0.0289 H       1  UNL1        0.1451
     17 H           3.1688    2.4070   -0.0117 H       1  UNL1        0.1451
@<TRIPOS>BOND
     1     1     2    2
     2     1    12    1
     3     2     3    1
     4     2    13    1
     5     3     4    1
     6     3    14    1
     7     3    15    1
     8     4     5   ar
     9     4    12   ar
    10     5     6    2
    11     5     7   ar
    12     7     8    1
    13     7     9   ar
    14     9    10    1
    15     9    11   ar
    16    10    16    1
    17    10    17    1
    18    11    12   ar
