2O3W_PAR_B_101
 OpenBabel10091713573D
Coordinates from PDB:2O3W:B:101 Model:1 without hydrogens
 87 90  0  0  0  0  0  0  0  0999 V2000
    7.9330   -0.2080    3.4150 C   0  0  2  0  0  0  0  0  0  0  0  0
    8.2770    0.1240    4.7710 O   0  0  0  0  0  0  0  0  0  0  0  0
    6.3790   -0.3030    3.3500 C   0  0  2  0  0  0  0  0  0  0  0  0
    5.7170    0.8700    3.9470 N   0  0  0  0  0  0  0  0  0  0  0  0
    5.8380   -1.5420    4.0870 C   0  0  1  0  0  0  0  0  0  0  0  0
    4.4160   -1.6100    3.9680 O   0  0  0  0  0  0  0  0  0  0  0  0
    6.5130   -2.8130    3.5230 C   0  0  2  0  0  0  0  0  0  0  0  0
    6.0160   -3.9580    4.1760 O   0  0  0  0  0  0  0  0  0  0  0  0
    8.0620   -2.6960    3.7140 C   0  0  2  0  0  0  0  0  0  0  0  0
    8.5520   -1.4960    3.0360 O   0  0  0  0  0  0  0  0  0  0  0  0
    8.8060   -3.8990    3.1820 C   0  0  0  0  0  0  0  0  0  0  0  0
    9.2050   -4.7310    4.2440 O   0  0  0  0  0  0  0  0  0  0  0  0
   11.4790    2.1030    6.9220 C   0  0  2  0  0  0  0  0  0  0  0  0
   12.8050    2.6820    7.2920 N   0  0  0  0  0  0  0  0  0  0  0  0
   11.5640    0.5320    6.7590 C   0  0  0  0  0  0  0  0  0  0  0  0
   10.1350   -0.0210    6.3920 C   0  0  2  0  0  0  0  0  0  0  0  0
   10.1750   -1.5010    6.2450 N   0  0  0  0  0  0  0  0  0  0  0  0
    9.6130    0.6310    5.0510 C   0  0  2  0  0  0  0  0  0  0  0  0
    9.5570    2.1730    5.1170 C   0  0  2  0  0  0  0  0  0  0  0  0
    9.2410    2.6020    3.7640 O   0  0  0  0  0  0  0  0  0  0  0  0
   10.9590    2.7540    5.5780 C   0  0  1  0  0  0  0  0  0  0  0  0
   10.8640    4.1660    5.7850 O   0  0  0  0  0  0  0  0  0  0  0  0
    8.5330    3.8250    3.5230 C   0  0  1  0  0  0  0  0  0  0  0  0
    8.9610    4.4770    2.1730 C   0  0  2  0  0  0  0  0  0  0  0  0
   10.0380    5.4380    2.2980 O   0  0  0  0  0  0  0  0  0  0  0  0
    7.6270    5.0380    1.6780 C   0  0  2  0  0  0  0  0  0  0  0  0
    7.4130    6.4080    2.1450 O   0  0  0  0  0  0  0  0  0  0  0  0
    6.5420    4.0900    2.2160 C   0  0  2  0  0  0  0  0  0  0  0  0
    7.1040    3.6200    3.4390 O   0  0  0  0  0  0  0  0  0  0  0  0
    6.1790    2.9020    1.2720 C   0  0  0  0  0  0  0  0  0  0  0  0
    4.7810    2.6430    1.3580 O   0  0  0  0  0  0  0  0  0  0  0  0
    6.6690    7.2650    1.2700 C   0  0  2  0  0  0  0  0  0  0  0  0
    6.9060    8.8010    1.5010 C   0  0  2  0  0  0  0  0  0  0  0  0
    6.6290    9.1760    2.9200 N   0  0  0  0  0  0  0  0  0  0  0  0
    5.9810    9.6360    0.4940 C   0  0  1  0  0  0  0  0  0  0  0  0
    6.5300    9.5330   -0.8390 O   0  0  0  0  0  0  0  0  0  0  0  0
    4.4590    9.1350    0.4870 C   0  0  2  0  0  0  0  0  0  0  0  0
    3.8840    9.4860    1.7450 O   0  0  0  0  0  0  0  0  0  0  0  0
    4.3880    7.5760    0.2710 C   0  0  1  0  0  0  0  0  0  0  0  0
    5.1850    6.9760    1.3550 O   0  0  0  0  0  0  0  0  0  0  0  0
    2.9110    6.9870    0.2840 C   0  0  0  0  0  0  0  0  0  0  0  0
    2.1630    7.1570    1.5600 N   0  0  0  0  0  0  0  0  0  0  0  0
    8.2920    0.5339    2.7326 H   0  0  0  0  0  0  0  0  0  0  0  0
    6.1570   -0.3623    2.3050 H   0  0  0  0  0  0  0  0  0  0  0  0
    5.9366    0.9145    4.9421 H   0  0  0  0  0  0  0  0  0  0  0  0
    4.7075    0.7895    3.8249 H   0  0  0  0  0  0  0  0  0  0  0  0
    6.0711   -1.4687    5.1287 H   0  0  0  0  0  0  0  0  0  0  0  0
    4.1728   -1.6774    3.0314 H   0  0  0  0  0  0  0  0  0  0  0  0
    6.2933   -2.9054    2.4799 H   0  0  0  0  0  0  0  0  0  0  0  0
    6.2043   -3.8960    5.1255 H   0  0  0  0  0  0  0  0  0  0  0  0
    8.2444   -2.6393    4.7668 H   0  0  0  0  0  0  0  0  0  0  0  0
    9.6716   -3.5706    2.6456 H   0  0  0  0  0  0  0  0  0  0  0  0
    8.1600   -4.4495    2.5304 H   0  0  0  0  0  0  0  0  0  0  0  0
    9.7912   -4.2375    4.8387 H   0  0  0  0  0  0  0  0  0  0  0  0
   10.7918    2.3204    7.7129 H   0  0  0  0  0  0  0  0  0  0  0  0
   13.4794    2.4876    6.5518 H   0  0  0  0  0  0  0  0  0  0  0  0
   13.1274    2.2631    8.1643 H   0  0  0  0  0  0  0  0  0  0  0  0
   11.8941    0.0929    7.6772 H   0  0  0  0  0  0  0  0  0  0  0  0
   12.2585    0.2850    5.9834 H   0  0  0  0  0  0  0  0  0  0  0  0
    9.4649    0.2356    7.1857 H   0  0  0  0  0  0  0  0  0  0  0  0
   10.8129   -1.7505    5.4892 H   0  0  0  0  0  0  0  0  0  0  0  0
    9.2400   -1.8466    6.0288 H   0  0  0  0  0  0  0  0  0  0  0  0
   10.3032    0.3680    4.2768 H   0  0  0  0  0  0  0  0  0  0  0  0
    8.8311    2.5211    5.8219 H   0  0  0  0  0  0  0  0  0  0  0  0
   11.6502    2.5213    4.7951 H   0  0  0  0  0  0  0  0  0  0  0  0
   10.2321    4.3464    6.4985 H   0  0  0  0  0  0  0  0  0  0  0  0
    8.7740    4.4574    4.3518 H   0  0  0  0  0  0  0  0  0  0  0  0
    9.4080    3.7989    1.4764 H   0  0  0  0  0  0  0  0  0  0  0  0
    9.7765    6.1381    2.9163 H   0  0  0  0  0  0  0  0  0  0  0  0
    7.6050    5.0884    0.6094 H   0  0  0  0  0  0  0  0  0  0  0  0
    5.6080    4.6014    2.3205 H   0  0  0  0  0  0  0  0  0  0  0  0
    6.7231    2.0300    1.5694 H   0  0  0  0  0  0  0  0  0  0  0  0
    6.4358    3.1535    0.2642 H   0  0  0  0  0  0  0  0  0  0  0  0
    4.5500    2.4152    2.2721 H   0  0  0  0  0  0  0  0  0  0  0  0
    7.0413    7.0384    0.2928 H   0  0  0  0  0  0  0  0  0  0  0  0
    7.9323    9.0316    1.3050 H   0  0  0  0  0  0  0  0  0  0  0  0
    5.6554    8.9689    3.1425 H   0  0  0  0  0  0  0  0  0  0  0  0
    6.8025   10.1729    3.0483 H   0  0  0  0  0  0  0  0  0  0  0  0
    5.9728   10.6523    0.8288 H   0  0  0  0  0  0  0  0  0  0  0  0
    6.5267    8.6044   -1.1192 H   0  0  0  0  0  0  0  0  0  0  0  0
    3.9216    9.5965   -0.3149 H   0  0  0  0  0  0  0  0  0  0  0  0
    4.3832    9.0595    2.4590 H   0  0  0  0  0  0  0  0  0  0  0  0
    4.7665    7.3420   -0.7021 H   0  0  0  0  0  0  0  0  0  0  0  0
    2.9723    5.9394    0.0752 H   0  0  0  0  0  0  0  0  0  0  0  0
    2.3672    7.5429   -0.4509 H   0  0  0  0  0  0  0  0  0  0  0  0
    2.6380    6.6450    2.3034 H   0  0  0  0  0  0  0  0  0  0  0  0
    1.2157    6.7952    1.4496 H   0  0  0  0  0  0  0  0  0  0  0  0
  1  2  1  0  0  0  0
  1  3  1  0  0  0  0
  1 10  1  0  0  0  0
  1 43  1  6  0  0  0
  2 18  1  0  0  0  0
  3  4  1  0  0  0  0
  3  5  1  0  0  0  0
  3 44  1  6  0  0  0
  4 45  1  0  0  0  0
  4 46  1  0  0  0  0
  5  6  1  0  0  0  0
  5  7  1  0  0  0  0
  5 47  1  1  0  0  0
  6 48  1  0  0  0  0
  7  8  1  0  0  0  0
  7  9  1  0  0  0  0
  7 49  1  6  0  0  0
  8 50  1  0  0  0  0
  9 10  1  0  0  0  0
  9 11  1  0  0  0  0
  9 51  1  1  0  0  0
 11 12  1  0  0  0  0
 11 52  1  0  0  0  0
 11 53  1  0  0  0  0
 12 54  1  0  0  0  0
 13 14  1  0  0  0  0
 13 15  1  0  0  0  0
 13 21  1  0  0  0  0
 13 55  1  1  0  0  0
 14 56  1  0  0  0  0
 14 57  1  0  0  0  0
 15 16  1  0  0  0  0
 15 58  1  0  0  0  0
 15 59  1  0  0  0  0
 16 17  1  0  0  0  0
 16 18  1  0  0  0  0
 16 60  1  1  0  0  0
 17 61  1  0  0  0  0
 17 62  1  0  0  0  0
 18 19  1  0  0  0  0
 18 63  1  6  0  0  0
 19 20  1  0  0  0  0
 19 21  1  0  0  0  0
 19 64  1  1  0  0  0
 20 23  1  0  0  0  0
 21 22  1  0  0  0  0
 21 65  1  6  0  0  0
 22 66  1  0  0  0  0
 23 24  1  0  0  0  0
 23 29  1  0  0  0  0
 23 67  1  1  0  0  0
 24 25  1  0  0  0  0
 24 26  1  0  0  0  0
 24 68  1  6  0  0  0
 25 69  1  0  0  0  0
 26 27  1  0  0  0  0
 26 28  1  0  0  0  0
 26 70  1  6  0  0  0
 27 32  1  0  0  0  0
 28 29  1  0  0  0  0
 28 30  1  0  0  0  0
 28 71  1  1  0  0  0
 30 31  1  0  0  0  0
 30 72  1  0  0  0  0
 30 73  1  0  0  0  0
 31 74  1  0  0  0  0
 32 33  1  0  0  0  0
 32 40  1  0  0  0  0
 32 75  1  6  0  0  0
 33 34  1  0  0  0  0
 33 35  1  0  0  0  0
 33 76  1  6  0  0  0
 34 77  1  0  0  0  0
 34 78  1  0  0  0  0
 35 36  1  0  0  0  0
 35 37  1  0  0  0  0
 35 79  1  1  0  0  0
 36 80  1  0  0  0  0
 37 38  1  0  0  0  0
 37 39  1  0  0  0  0
 37 81  1  6  0  0  0
 38 82  1  0  0  0  0
 39 40  1  0  0  0  0
 39 41  1  0  0  0  0
 39 83  1  6  0  0  0
 41 42  1  0  0  0  0
 41 84  1  0  0  0  0
 41 85  1  0  0  0  0
 42 86  1  0  0  0  0
 42 87  1  0  0  0  0
A    1
C11
A    2
O11
A    3
C21
A    4
N21
A    5
C31
A    6
O31
A    7
C41
A    8
O41
A    9
C51
A   10
O51
A   11
C61
A   12
O61
A   13
C12
A   14
N12
A   15
C22
A   16
C32
A   17
N32
A   18
C42
A   19
C52
A   20
O52
A   21
C62
A   22
O62
A   23
C13
A   24
C23
A   25
O23
A   26
C33
A   27
O33
A   28
C43
A   29
O43
A   30
C53
A   31
O53
A   32
C14
A   33
C24
A   34
N24
A   35
C34
A   36
O34
A   37
C44
A   38
O44
A   39
C54
A   40
O54
A   41
C64
A   42
N64
M  END
>  <InstanceId>
2O3W_PAR_B_101

>  <ChemCompId>
PAR

>  <PdbId>
2O3W

>  <ChainId>
B

>  <ResidueNumber>
101

>  <InsertionCode>


>  <Model>
1

>  <AltIds>


>  <MissingHeavyAtoms>
0

>  <ObservedFormula>
C23 N5 O14

>  <Name>
PAROMOMYCIN

>  <SystematicName>
(2R,3S,4R,5R,6S)-5-amino-6-[(1R,2R,3S,4R,6S)-4,6-diamino-2-[(2S,3R,4S,5R)-4-[(2R,3R,4R,5S,6S)-3-amino-6-(aminomethyl)-4,5-dihydroxy-oxan-2-yl]oxy-3-hydroxy-5-(hydroxymethyl)oxolan-2-yl]oxy-3-hydroxy-cyclohexyl]oxy-2-(hydroxymethyl)oxane-3,4-diol

>  <Synonyms>
PAROMOMYCIN I, AMMINOSIDIN, CATENULIN, CRESTOMYCIN, MONOMYCIN A, NEOMYCIN E

>  <Type>
NON-POLYMER

>  <Formula>
C23 H45 N5 O14

>  <MolecularWeight>
615.628

>  <ModifiedDate>
2011-06-04

>  <Parent>


>  <OneLetterCode>


>  <SubcomponentList>


>  <AmbiguousFlag>
N

>  <InChI>
InChI=1S/C23H45N5O14/c24-2-7-13(32)15(34)10(27)21(37-7)41-19-9(4-30)39-23(17(19)36)42-20-12(31)5(25)1-6(26)18(20)40-22-11(28)16(35)14(33)8(3-29)38-22/h5-23,29-36H,1-4,24-28H2/t5-,6+,7+,8-,9-,10-,11-,12+,13-,14-,15-,16-,17-,18-,19-,20-,21-,22-,23+/m1/s1

>  <InChIKey>
UOZODPSAJZTQNH-LSWIJEOBSA-N

>  <SMILES>
C1[C@H]([C@@H]([C@H]([C@@H]([C@H]1N)O[C@@H]2[C@@H]([C@H]([C@@H]([C@H](O2)CO)O)O)N)O[C@H]3[C@@H]([C@@H]([C@H](O3)CO)O[C@@H]4[C@@H]([C@H]([C@@H]([C@@H](O4)CN)O)O)N)O)O)N

$$$$
