@<TRIPOS>MOLECULE
2O3W_PAR_B_101
 42 45 0 0 0
SMALL
GASTEIGER
****
Coordinates from PDB:2O3W:B:101 Model:1 without hydrogens
@<TRIPOS>ATOM
      1 C           7.9330   -0.2080    3.4150 C.3     1  UNL1        0.2561
      2 O           8.2770    0.1240    4.7710 O.3     1  UNL1       -0.3278
      3 C           6.3790   -0.3030    3.3500 C.3     1  UNL1        0.1807
      4 N           5.7170    0.8700    3.9470 N.3     1  UNL1       -0.1248
      5 C           5.8380   -1.5420    4.0870 C.3     1  UNL1        0.2070
      6 O           4.4160   -1.6100    3.9680 O.3     1  UNL1       -0.2186
      7 C           6.5130   -2.8130    3.5230 C.3     1  UNL1        0.2133
      8 O           6.0160   -3.9580    4.1760 O.3     1  UNL1       -0.2176
      9 C           8.0620   -2.6960    3.7140 C.3     1  UNL1        0.1834
     10 O           8.5520   -1.4960    3.0360 O.3     1  UNL1       -0.3264
     11 C           8.8060   -3.8990    3.1820 C.3     1  UNL1        0.2142
     12 O           9.2050   -4.7310    4.2440 O.3     1  UNL1       -0.2176
     13 C          11.4790    2.1030    6.9220 C.3     1  UNL1        0.1261
     14 N          12.8050    2.6820    7.2920 N.3     1  UNL1       -0.1301
     15 C          11.5640    0.5320    6.7590 C.3     1  UNL1        0.0433
     16 C          10.1350   -0.0210    6.3920 C.3     1  UNL1        0.1230
     17 N          10.1750   -1.5010    6.2450 N.3     1  UNL1       -0.1302
     18 C           9.6130    0.6310    5.0510 C.3     1  UNL1        0.1649
     19 C           9.5570    2.1730    5.1170 C.3     1  UNL1        0.1779
     20 O           9.2410    2.6020    3.7640 O.3     1  UNL1       -0.3258
     21 C          10.9590    2.7540    5.5780 C.3     1  UNL1        0.1989
     22 O          10.8640    4.1660    5.7850 O.3     1  UNL1       -0.2189
     23 C           8.5330    3.8250    3.5230 C.3     1  UNL1        0.2694
     24 C           8.9610    4.4770    2.1730 C.3     1  UNL1        0.2373
     25 O          10.0380    5.4380    2.2980 O.3     1  UNL1       -0.2150
     26 C           7.6270    5.0380    1.6780 C.3     1  UNL1        0.1827
     27 O           7.4130    6.4080    2.1450 O.3     1  UNL1       -0.3265
     28 C           6.5420    4.0900    2.2160 C.3     1  UNL1        0.1804
     29 O           7.1040    3.6200    3.4390 O.3     1  UNL1       -0.3257
     30 C           6.1790    2.9020    1.2720 C.3     1  UNL1        0.2141
     31 O           4.7810    2.6430    1.3580 O.3     1  UNL1       -0.2176
     32 C           6.6690    7.2650    1.2700 C.3     1  UNL1        0.2561
     33 C           6.9060    8.8010    1.5010 C.3     1  UNL1        0.1807
     34 N           6.6290    9.1760    2.9200 N.3     1  UNL1       -0.1248
     35 C           5.9810    9.6360    0.4940 C.3     1  UNL1        0.2070
     36 O           6.5300    9.5330   -0.8390 O.3     1  UNL1       -0.2186
     37 C           4.4590    9.1350    0.4870 C.3     1  UNL1        0.2122
     38 O           3.8840    9.4860    1.7450 O.3     1  UNL1       -0.2177
     39 C           4.3880    7.5760    0.2710 C.3     1  UNL1        0.1696
     40 O           5.1850    6.9760    1.3550 O.3     1  UNL1       -0.3276
     41 C           2.9110    6.9870    0.2840 C.3     1  UNL1        0.1415
     42 N           2.1630    7.1570    1.5600 N.3     1  UNL1       -0.1286
@<TRIPOS>BOND
     1     1     2    1
     2     1     3    1
     3     1    10    1
     4     3     4    1
     5     3     5    1
     6     5     6    1
     7     5     7    1
     8     7     8    1
     9     7     9    1
    10     9    10    1
    11     9    11    1
    12    11    12    1
    13    13    14    1
    14    13    15    1
    15    13    21    1
    16    15    16    1
    17    16    17    1
    18    16    18    1
    19    18     2    1
    20    18    19    1
    21    19    20    1
    22    19    21    1
    23    21    22    1
    24    23    20    1
    25    23    24    1
    26    23    29    1
    27    24    25    1
    28    24    26    1
    29    26    27    1
    30    26    28    1
    31    28    29    1
    32    28    30    1
    33    30    31    1
    34    32    27    1
    35    32    33    1
    36    32    40    1
    37    33    34    1
    38    33    35    1
    39    35    36    1
    40    35    37    1
    41    37    38    1
    42    37    39    1
    43    39    40    1
    44    39    41    1
    45    41    42    1
