REMARK  9 active torsions:
REMARK  status: ('A' for Active; 'I' for Inactive)
REMARK    1  A    between atoms: C_1  and  O_2 
REMARK    2  A    between atoms: C_18  and  O_2 
REMARK    3  A    between atoms: C_9  and  C_11 
REMARK    4  A    between atoms: C_19  and  O_20 
REMARK    5  A    between atoms: C_23  and  O_20 
REMARK    6  A    between atoms: C_26  and  O_27 
REMARK    7  A    between atoms: C_32  and  O_27 
REMARK    8  A    between atoms: C_28  and  C_30 
REMARK    9  A    between atoms: C_39  and  C_41 
ROOT
ATOM      1  C   UNL d   1      11.479   2.103   6.922  0.00  0.00     0.337 C 
ATOM      2  N   UNL d   1      12.805   2.682   7.292  0.00  0.00     0.619 N 
ATOM      3  C   UNL d   1      11.564   0.532   6.759  0.00  0.00     0.084 C 
ATOM      4  C   UNL d   1      10.135  -0.021   6.392  0.00  0.00     0.333 C 
ATOM      5  N   UNL d   1      10.175  -1.501   6.245  0.00  0.00     0.619 N 
ATOM      6  C   UNL d   1       9.613   0.631   5.051  0.00  0.00     0.184 C 
ATOM      7  C   UNL d   1       9.557   2.173   5.117  0.00  0.00     0.180 C 
ATOM      8  C   UNL d   1      10.959   2.754   5.578  0.00  0.00     0.218 C 
ATOM      9  O   UNL d   1      10.864   4.166   5.785  0.00  0.00    -0.218 OA
ENDROOT
BRANCH   7  10
ATOM     10  O   UNL d   1       9.241   2.602   3.764  0.00  0.00    -0.326 OA
BRANCH  10  11
ATOM     11  C   UNL d   1       8.533   3.825   3.523  0.00  0.00     0.270 C 
ATOM     12  C   UNL d   1       8.961   4.477   2.173  0.00  0.00     0.238 C 
ATOM     13  O   UNL d   1      10.038   5.438   2.298  0.00  0.00    -0.215 OA
ATOM     14  C   UNL d   1       7.627   5.038   1.678  0.00  0.00     0.183 C 
ATOM     15  C   UNL d   1       6.542   4.090   2.216  0.00  0.00     0.181 C 
ATOM     16  O   UNL d   1       7.104   3.620   3.439  0.00  0.00    -0.326 OA
BRANCH  14  17
ATOM     17  O   UNL d   1       7.413   6.408   2.145  0.00  0.00    -0.326 OA
BRANCH  17  18
ATOM     18  C   UNL d   1       6.669   7.265   1.270  0.00  0.00     0.277 C 
ATOM     19  C   UNL d   1       6.906   8.801   1.501  0.00  0.00     0.390 C 
ATOM     20  N   UNL d   1       6.629   9.176   2.920  0.00  0.00     0.624 N 
ATOM     21  C   UNL d   1       5.981   9.636   0.494  0.00  0.00     0.227 C 
ATOM     22  O   UNL d   1       6.530   9.533  -0.839  0.00  0.00    -0.218 OA
ATOM     23  C   UNL d   1       4.459   9.135   0.487  0.00  0.00     0.214 C 
ATOM     24  O   UNL d   1       3.884   9.486   1.745  0.00  0.00    -0.218 OA
ATOM     25  C   UNL d   1       4.388   7.576   0.271  0.00  0.00     0.190 C 
ATOM     26  O   UNL d   1       5.185   6.976   1.355  0.00  0.00    -0.327 OA
BRANCH  25  27
ATOM     27  C   UNL d   1       2.911   6.987   0.284  0.00  0.00     0.370 C 
ATOM     28  N   UNL d   1       2.163   7.157   1.560  0.00  0.00     0.621 N 
ENDBRANCH  25  27
ENDBRANCH  17  18
ENDBRANCH  14  17
BRANCH  15  29
ATOM     29  C   UNL d   1       6.179   2.902   1.272  0.00  0.00     0.214 C 
ATOM     30  O   UNL d   1       4.781   2.643   1.358  0.00  0.00    -0.218 OA
ENDBRANCH  15  29
ENDBRANCH  10  11
ENDBRANCH   7  10
BRANCH   6  31
ATOM     31  O   UNL d   1       8.277   0.124   4.771  0.00  0.00    -0.327 OA
BRANCH  31  32
ATOM     32  C   UNL d   1       7.933  -0.208   3.415  0.00  0.00     0.277 C 
ATOM     33  C   UNL d   1       6.379  -0.303   3.350  0.00  0.00     0.390 C 
ATOM     34  N   UNL d   1       5.717   0.870   3.947  0.00  0.00     0.624 N 
ATOM     35  C   UNL d   1       5.838  -1.542   4.087  0.00  0.00     0.227 C 
ATOM     36  O   UNL d   1       4.416  -1.610   3.968  0.00  0.00    -0.218 OA
ATOM     37  C   UNL d   1       6.513  -2.813   3.523  0.00  0.00     0.214 C 
ATOM     38  O   UNL d   1       6.016  -3.958   4.176  0.00  0.00    -0.218 OA
ATOM     39  C   UNL d   1       8.062  -2.696   3.714  0.00  0.00     0.184 C 
ATOM     40  O   UNL d   1       8.552  -1.496   3.036  0.00  0.00    -0.326 OA
BRANCH  39  41
ATOM     41  C   UNL d   1       8.806  -3.899   3.182  0.00  0.00     0.214 C 
ATOM     42  O   UNL d   1       9.205  -4.731   4.244  0.00  0.00    -0.218 OA
ENDBRANCH  39  41
ENDBRANCH  31  32
ENDBRANCH   6  31
TORSDOF 9
