@<TRIPOS>MOLECULE
2OE5_AM2_B_101
 37 40 0 0 0
SMALL
GASTEIGER
****
Coordinates from PDB:2OE5:B:101 Model:1 without hydrogens
@<TRIPOS>ATOM
      1 C          20.6690    1.1630   54.0570 C.3     1  UNL1        0.2535
      2 C          19.4830    1.5270   53.1360 C.3     1  UNL1        0.1505
      3 C          18.9570    0.2240   52.4270 C.3     1  UNL1        0.0564
      4 C          20.1650   -0.3260   51.6360 C.3     1  UNL1        0.1491
      5 C          21.3790   -0.6910   52.6000 C.3     1  UNL1        0.1766
      6 C          22.6020   -1.2530   51.8250 C.3     1  UNL1        0.2022
      7 C          22.1150   -2.5260   51.0760 C.3     1  UNL1        0.1619
      8 C          20.8880   -2.1300   50.1700 C.3     1  UNL1        0.2562
      9 C          24.5270   -3.5330   50.9000 C.3     1  UNL1        0.1077
     10 O          21.7690    0.5230   53.3200 O.3     1  UNL1       -0.3267
     11 O          19.7750   -1.5390   50.9380 O.3     1  UNL1       -0.3292
     12 N          18.3900    2.1300   53.9330 N.3     1  UNL1       -0.1275
     13 N          23.2370   -3.1120   50.2500 N.3     1  UNL1       -0.2103
     14 O          23.0510   -0.2420   50.9170 O.3     1  UNL1       -0.2188
     15 O          20.3770   -3.2770   49.5200 O.3     1  UNL1       -0.3025
     16 O          20.2760    0.2700   55.1120 O.3     1  UNL1       -0.3277
     17 C          19.6630   -2.9020   48.3570 C.3     1  UNL1        0.2712
     18 C          18.4310   -3.7760   48.1250 C.3     1  UNL1        0.2395
     19 C          18.8330   -5.2520   47.8550 C.3     1  UNL1        0.2071
     20 C          19.7910   -5.2600   46.6270 C.3     1  UNL1        0.1545
     21 C          21.0370   -4.3810   46.9750 C.3     1  UNL1        0.1707
     22 C          22.0170   -4.2740   45.8280 C.3     1  UNL1        0.2131
     23 O          20.5670   -3.0110   47.2130 O.3     1  UNL1       -0.3267
     24 N          20.1860   -6.6930   46.3540 N.3     1  UNL1       -0.1275
     25 O          17.6020   -3.6770   49.3000 O.3     1  UNL1       -0.2149
     26 O          17.6380   -5.9890   47.5390 O.3     1  UNL1       -0.2186
     27 O          21.3760   -4.0920   44.6120 O.3     1  UNL1       -0.2176
     28 C          21.0610    0.3860   56.2990 C.3     1  UNL1        0.1681
     29 C          20.3440    1.3380   57.3220 C.3     1  UNL1        0.2119
     30 C          21.2190    1.4390   58.6230 C.3     1  UNL1        0.2020
     31 C          21.3690    0.0420   59.2440 C.3     1  UNL1        0.1262
     32 C          22.1020   -0.9090   58.2210 C.3     1  UNL1        0.0433
     33 C          21.2320   -1.0000   56.9060 C.3     1  UNL1        0.1231
     34 N          22.1640    0.1520   60.4560 N.3     1  UNL1       -0.1301
     35 N          21.9010   -1.8720   55.9050 N.3     1  UNL1       -0.1302
     36 O          20.1990    2.6640   56.7370 O.3     1  UNL1       -0.2177
     37 O          20.5730    2.2740   59.5470 O.3     1  UNL1       -0.2188
@<TRIPOS>BOND
     1     1     2    1
     2     1    10    1
     3     1    16    1
     4     2     3    1
     5     2    12    1
     6     4     3    1
     7     4     5    1
     8     4    11    1
     9     5     6    1
    10     5    10    1
    11     6     7    1
    12     6    14    1
    13     7     8    1
    14     7    13    1
    15     8    11    1
    16     8    15    1
    17     9    13    1
    18    17    15    1
    19    17    18    1
    20    17    23    1
    21    18    19    1
    22    18    25    1
    23    19    20    1
    24    19    26    1
    25    20    21    1
    26    20    24    1
    27    21    22    1
    28    21    23    1
    29    22    27    1
    30    28    16    1
    31    28    29    1
    32    28    33    1
    33    29    30    1
    34    29    36    1
    35    30    31    1
    36    30    37    1
    37    31    32    1
    38    31    34    1
    39    32    33    1
    40    33    35    1
