2OE5_AM2_B_101
 OpenBabel10091713573D
Coordinates from PDB:2OE5:B:101 Model:1 without hydrogens
 78 81  0  0  0  0  0  0  0  0999 V2000
   20.6690    1.1630   54.0570 C   0  0  2  0  0  0  0  0  0  0  0  0
   19.4830    1.5270   53.1360 C   0  0  1  0  0  0  0  0  0  0  0  0
   18.9570    0.2240   52.4270 C   0  0  0  0  0  0  0  0  0  0  0  0
   20.1650   -0.3260   51.6360 C   0  0  1  0  0  0  0  0  0  0  0  0
   21.3790   -0.6910   52.6000 C   0  0  1  0  0  0  0  0  0  0  0  0
   22.6020   -1.2530   51.8250 C   0  0  1  0  0  0  0  0  0  0  0  0
   22.1150   -2.5260   51.0760 C   0  0  1  0  0  0  0  0  0  0  0  0
   20.8880   -2.1300   50.1700 C   0  0  2  0  0  0  0  0  0  0  0  0
   24.5270   -3.5330   50.9000 C   0  0  0  0  0  0  0  0  0  0  0  0
   21.7690    0.5230   53.3200 O   0  0  0  0  0  0  0  0  0  0  0  0
   19.7750   -1.5390   50.9380 O   0  0  0  0  0  0  0  0  0  0  0  0
   18.3900    2.1300   53.9330 N   0  0  0  0  0  0  0  0  0  0  0  0
   23.2370   -3.1120   50.2500 N   0  0  0  0  0  0  0  0  0  0  0  0
   23.0510   -0.2420   50.9170 O   0  0  0  0  0  0  0  0  0  0  0  0
   20.3770   -3.2770   49.5200 O   0  0  0  0  0  0  0  0  0  0  0  0
   20.2760    0.2700   55.1120 O   0  0  0  0  0  0  0  0  0  0  0  0
   19.6630   -2.9020   48.3570 C   0  0  2  0  0  0  0  0  0  0  0  0
   18.4310   -3.7760   48.1250 C   0  0  1  0  0  0  0  0  0  0  0  0
   18.8330   -5.2520   47.8550 C   0  0  2  0  0  0  0  0  0  0  0  0
   19.7910   -5.2600   46.6270 C   0  0  1  0  0  0  0  0  0  0  0  0
   21.0370   -4.3810   46.9750 C   0  0  1  0  0  0  0  0  0  0  0  0
   22.0170   -4.2740   45.8280 C   0  0  0  0  0  0  0  0  0  0  0  0
   20.5670   -3.0110   47.2130 O   0  0  0  0  0  0  0  0  0  0  0  0
   20.1860   -6.6930   46.3540 N   0  0  0  0  0  0  0  0  0  0  0  0
   17.6020   -3.6770   49.3000 O   0  0  0  0  0  0  0  0  0  0  0  0
   17.6380   -5.9890   47.5390 O   0  0  0  0  0  0  0  0  0  0  0  0
   21.3760   -4.0920   44.6120 O   0  0  0  0  0  0  0  0  0  0  0  0
   21.0610    0.3860   56.2990 C   0  0  1  0  0  0  0  0  0  0  0  0
   20.3440    1.3380   57.3220 C   0  0  1  0  0  0  0  0  0  0  0  0
   21.2190    1.4390   58.6230 C   0  0  2  0  0  0  0  0  0  0  0  0
   21.3690    0.0420   59.2440 C   0  0  1  0  0  0  0  0  0  0  0  0
   22.1020   -0.9090   58.2210 C   0  0  0  0  0  0  0  0  0  0  0  0
   21.2320   -1.0000   56.9060 C   0  0  2  0  0  0  0  0  0  0  0  0
   22.1640    0.1520   60.4560 N   0  0  0  0  0  0  0  0  0  0  0  0
   21.9010   -1.8720   55.9050 N   0  0  0  0  0  0  0  0  0  0  0  0
   20.1990    2.6640   56.7370 O   0  0  0  0  0  0  0  0  0  0  0  0
   20.5730    2.2740   59.5470 O   0  0  0  0  0  0  0  0  0  0  0  0
   21.0011    2.0933   54.4683 H   0  0  0  0  0  0  0  0  0  0  0  0
   19.8104    2.2324   52.4011 H   0  0  0  0  0  0  0  0  0  0  0  0
   18.1501    0.4577   51.7643 H   0  0  0  0  0  0  0  0  0  0  0  0
   18.5828   -0.4897   53.1309 H   0  0  0  0  0  0  0  0  0  0  0  0
   20.4747    0.4356   50.9512 H   0  0  0  0  0  0  0  0  0  0  0  0
   21.0582   -1.4574   53.2742 H   0  0  0  0  0  0  0  0  0  0  0  0
   23.4189   -1.5123   52.4656 H   0  0  0  0  0  0  0  0  0  0  0  0
   21.8113   -3.2743   51.7779 H   0  0  0  0  0  0  0  0  0  0  0  0
   21.2568   -1.4055   49.4743 H   0  0  0  0  0  0  0  0  0  0  0  0
   25.1915   -3.9203   50.1561 H   0  0  0  0  0  0  0  0  0  0  0  0
   24.3283   -4.2900   51.6296 H   0  0  0  0  0  0  0  0  0  0  0  0
   24.9786   -2.6881   51.3765 H   0  0  0  0  0  0  0  0  0  0  0  0
   18.0733    1.4621   54.6358 H   0  0  0  0  0  0  0  0  0  0  0  0
   17.6129    2.3700   53.3175 H   0  0  0  0  0  0  0  0  0  0  0  0
   23.4786   -2.4126   49.5480 H   0  0  0  0  0  0  0  0  0  0  0  0
   22.3236    0.0078   50.3259 H   0  0  0  0  0  0  0  0  0  0  0  0
   19.3142   -1.8981   48.4809 H   0  0  0  0  0  0  0  0  0  0  0  0
   17.8974   -3.4388   47.2610 H   0  0  0  0  0  0  0  0  0  0  0  0
   19.3149   -5.6920   48.7030 H   0  0  0  0  0  0  0  0  0  0  0  0
   19.3242   -4.8584   45.7519 H   0  0  0  0  0  0  0  0  0  0  0  0
   21.5185   -4.8350   47.8158 H   0  0  0  0  0  0  0  0  0  0  0  0
   22.5950   -5.1733   45.7825 H   0  0  0  0  0  0  0  0  0  0  0  0
   22.6398   -3.4219   46.0040 H   0  0  0  0  0  0  0  0  0  0  0  0
   20.6325   -7.0863   47.1825 H   0  0  0  0  0  0  0  0  0  0  0  0
   20.8379   -6.7225   45.5700 H   0  0  0  0  0  0  0  0  0  0  0  0
   18.0992   -3.9859   50.0735 H   0  0  0  0  0  0  0  0  0  0  0  0
   17.2041   -5.5872   46.7701 H   0  0  0  0  0  0  0  0  0  0  0  0
   20.8041   -4.8542   44.4307 H   0  0  0  0  0  0  0  0  0  0  0  0
   22.0197    0.7992   56.0646 H   0  0  0  0  0  0  0  0  0  0  0  0
   19.3765    0.9478   57.5601 H   0  0  0  0  0  0  0  0  0  0  0  0
   22.1820    1.8353   58.3772 H   0  0  0  0  0  0  0  0  0  0  0  0
   20.4051   -0.3611   59.4750 H   0  0  0  0  0  0  0  0  0  0  0  0
   22.2112   -1.8835   58.6492 H   0  0  0  0  0  0  0  0  0  0  0  0
   23.0723   -0.5208   57.9914 H   0  0  0  0  0  0  0  0  0  0  0  0
   20.2775   -1.4095   57.1631 H   0  0  0  0  0  0  0  0  0  0  0  0
   23.0806    0.5367   60.2276 H   0  0  0  0  0  0  0  0  0  0  0  0
   22.2774   -0.7718   60.8733 H   0  0  0  0  0  0  0  0  0  0  0  0
   22.8100   -1.4771   55.6636 H   0  0  0  0  0  0  0  0  0  0  0  0
   21.3231   -1.9326   55.0667 H   0  0  0  0  0  0  0  0  0  0  0  0
   21.0752    3.0194   56.5204 H   0  0  0  0  0  0  0  0  0  0  0  0
   19.7020    1.9052   59.7622 H   0  0  0  0  0  0  0  0  0  0  0  0
  1  2  1  0  0  0  0
  1 10  1  0  0  0  0
  1 16  1  0  0  0  0
  1 38  1  1  0  0  0
  2  3  1  0  0  0  0
  2 12  1  0  0  0  0
  2 39  1  6  0  0  0
  3  4  1  0  0  0  0
  3 40  1  0  0  0  0
  3 41  1  0  0  0  0
  4  5  1  0  0  0  0
  4 11  1  0  0  0  0
  4 42  1  6  0  0  0
  5  6  1  0  0  0  0
  5 10  1  0  0  0  0
  5 43  1  1  0  0  0
  6  7  1  0  0  0  0
  6 14  1  0  0  0  0
  6 44  1  1  0  0  0
  7  8  1  0  0  0  0
  7 13  1  0  0  0  0
  7 45  1  1  0  0  0
  8 11  1  0  0  0  0
  8 15  1  0  0  0  0
  8 46  1  6  0  0  0
  9 13  1  0  0  0  0
  9 47  1  0  0  0  0
  9 48  1  0  0  0  0
  9 49  1  0  0  0  0
 12 50  1  0  0  0  0
 12 51  1  0  0  0  0
 13 52  1  0  0  0  0
 14 53  1  0  0  0  0
 15 17  1  0  0  0  0
 16 28  1  0  0  0  0
 17 18  1  0  0  0  0
 17 23  1  0  0  0  0
 17 54  1  1  0  0  0
 18 19  1  0  0  0  0
 18 25  1  0  0  0  0
 18 55  1  6  0  0  0
 19 20  1  0  0  0  0
 19 26  1  0  0  0  0
 19 56  1  1  0  0  0
 20 21  1  0  0  0  0
 20 24  1  0  0  0  0
 20 57  1  6  0  0  0
 21 22  1  0  0  0  0
 21 23  1  0  0  0  0
 21 58  1  1  0  0  0
 22 27  1  0  0  0  0
 22 59  1  0  0  0  0
 22 60  1  0  0  0  0
 24 61  1  0  0  0  0
 24 62  1  0  0  0  0
 25 63  1  0  0  0  0
 26 64  1  0  0  0  0
 27 65  1  0  0  0  0
 28 29  1  0  0  0  0
 28 33  1  0  0  0  0
 28 66  1  6  0  0  0
 29 30  1  0  0  0  0
 29 36  1  0  0  0  0
 29 67  1  1  0  0  0
 30 31  1  0  0  0  0
 30 37  1  0  0  0  0
 30 68  1  6  0  0  0
 31 32  1  0  0  0  0
 31 34  1  0  0  0  0
 31 69  1  1  0  0  0
 32 33  1  0  0  0  0
 32 70  1  0  0  0  0
 32 71  1  0  0  0  0
 33 35  1  0  0  0  0
 33 72  1  1  0  0  0
 34 73  1  0  0  0  0
 34 74  1  0  0  0  0
 35 75  1  0  0  0  0
 35 76  1  0  0  0  0
 36 77  1  0  0  0  0
 37 78  1  0  0  0  0
A    1
CA1
A    2
CA2
A    3
CA3
A    4
CA4
A    5
CA5
A    6
CA6
A    7
CA7
A    8
CA8
A    9
CA9
A   10
OA4
A   11
OA5
A   12
NA2
A   13
NA7
A   14
OA6
A   15
OA8
A   16
OA1
A   17
CB1
A   18
CB2
A   19
CB3
A   20
CB4
A   21
CB5
A   22
CB6
A   23
OB1
A   24
NB4
A   25
OB2
A   26
OB3
A   27
OB6
A   28
CC1
A   29
CC2
A   30
CC3
A   31
CC4
A   32
CC5
A   33
CC6
A   34
NC4
A   35
NC6
A   36
OC2
A   37
OC3
M  END
>  <InstanceId>
2OE5_AM2_B_101

>  <ChemCompId>
AM2

>  <PdbId>
2OE5

>  <ChainId>
B

>  <ResidueNumber>
101

>  <InsertionCode>


>  <Model>
1

>  <AltIds>


>  <MissingHeavyAtoms>
0

>  <ObservedFormula>
C21 N5 O11

>  <Name>
APRAMYCIN

>  <SystematicName>
(2R,3R,4S,5S,6S)-2-[[(2R,3S,4R,4aR,6S,7R,8aS)-7-amino-6-[(1R,2R,3S,4R,6S)-4,6-diamino-2,3-dihydroxy-cyclohexyl]oxy-4-hydroxy-3-methylamino-2,3,4,4a,6,7,8,8a-octahydropyrano[2,3-e]pyran-2-yl]oxy]-5-amino-6-(hydroxymethyl)oxane-3,4-diol

>  <Synonyms>
NEBRAMYCIN II, 4-O-(3ALPHA-AMINO-6ALPHA-((4-AMINO-4-DEOXY-ALPHA-D-GLUCOPYRANOSYL)OXY)-2,3,4,5ABETA,6,7,8,8AALPHA-OCTAHYDRO-8BETA-HYDROXY-7BETA-(METHYLAMINO)PYRANO(3,2-B)PYRAN-2ALPHA-YL)-2-DEOXY-D-STREPTAMINE

>  <Type>
NON-POLYMER

>  <Formula>
C21 H41 N5 O11

>  <MolecularWeight>
539.577

>  <ModifiedDate>
2011-06-04

>  <Parent>


>  <OneLetterCode>


>  <SubcomponentList>


>  <AmbiguousFlag>
N

>  <InChI>
InChI=1S/C21H41N5O11/c1-26-11-14(30)18-8(33-20(11)37-21-16(32)13(29)10(25)9(4-27)34-21)3-7(24)19(36-18)35-17-6(23)2-5(22)12(28)15(17)31/h5-21,26-32H,2-4,22-25H2,1H3/t5-,6+,7-,8+,9-,10-,11+,12+,13+,14-,15-,16-,17-,18+,19+,20-,21-/m1/s1

>  <InChIKey>
XZNUGFQTQHRASN-XQENGBIVSA-N

>  <SMILES>
CN[C@H]1[C@H]([C@@H]2[C@H](C[C@H]([C@H](O2)O[C@@H]3[C@H](C[C@H]([C@@H]([C@H]3O)O)N)N)N)O[C@@H]1O[C@@H]4[C@@H]([C@H]([C@@H]([C@H](O4)CO)N)O)O)O

$$$$
