@<TRIPOS>MOLECULE
2MXS_PAR_A_101
 42 45 0 0 0
SMALL
GASTEIGER
****
Coordinates from PDB:2MXS:A:101 Model:1 without hydrogens
@<TRIPOS>ATOM
      1 C           0.8280    3.9720    0.3410 C.3     1  UNL1        0.2561
      2 O          -0.1530    3.2460   -0.4020 O.3     1  UNL1       -0.3278
      3 C           0.4540    5.4590    0.4340 C.3     1  UNL1        0.1807
      4 N          -0.9010    5.6300    0.9900 N.3     1  UNL1       -0.1248
      5 C           0.5790    6.1440   -0.9330 C.3     1  UNL1        0.2070
      6 O           0.3770    7.5360   -0.7810 O.3     1  UNL1       -0.2186
      7 C           1.9730    5.8940   -1.5280 C.3     1  UNL1        0.2133
      8 O           2.0150    6.3960   -2.8500 O.3     1  UNL1       -0.2176
      9 C           2.3270    4.3930   -1.5280 C.3     1  UNL1        0.1834
     10 O           2.1200    3.8140   -0.2400 O.3     1  UNL1       -0.3264
     11 C           3.8070    4.2500   -1.9310 C.3     1  UNL1        0.2142
     12 O           4.2640    2.8730   -1.8580 O.3     1  UNL1       -0.2176
     13 C          -1.3260   -0.8940   -0.2780 C.3     1  UNL1        0.1261
     14 N          -1.0550   -2.3270   -0.0470 N.3     1  UNL1       -0.1301
     15 C          -0.4220   -0.3540   -1.3890 C.3     1  UNL1        0.0433
     16 C          -0.5950    1.1530   -1.5370 C.3     1  UNL1        0.1230
     17 N           0.2010    1.6460   -2.6680 N.3     1  UNL1       -0.1302
     18 C          -0.1880    1.8250   -0.2050 C.3     1  UNL1        0.1649
     19 C          -1.1700    1.4220    0.8480 C.3     1  UNL1        0.1779
     20 O          -0.8040    2.0800    2.0470 O.3     1  UNL1       -0.3258
     21 C          -1.1440   -0.0850    1.0200 C.3     1  UNL1        0.1989
     22 O          -2.1160   -0.5310    1.9470 O.3     1  UNL1       -0.2189
     23 C          -1.8210    2.3030    3.0180 C.3     1  UNL1        0.2694
     24 C          -1.2860    1.8320    4.3720 C.3     1  UNL1        0.2373
     25 O          -2.3430    1.2610    5.1200 O.3     1  UNL1       -0.2150
     26 C          -0.7540    3.1330    4.9880 C.3     1  UNL1        0.1827
     27 O          -0.6430    3.0670    6.4100 O.3     1  UNL1       -0.3265
     28 C          -1.8050    4.1220    4.4690 C.3     1  UNL1        0.1804
     29 O          -2.0690    3.6980    3.1390 O.3     1  UNL1       -0.3257
     30 C          -1.3410    5.5830    4.4430 C.3     1  UNL1        0.2141
     31 O          -1.8470    6.3090    5.5430 O.3     1  UNL1       -0.2176
     32 C           0.4630    2.3020    6.8850 C.3     1  UNL1        0.2561
     33 C           0.1500    1.6170    8.2240 C.3     1  UNL1        0.1807
     34 N          -1.0660    0.7930    8.1220 N.3     1  UNL1       -0.1248
     35 C           0.0390    2.6450    9.3600 C.3     1  UNL1        0.2070
     36 O          -0.1630    1.9530   10.5770 O.3     1  UNL1       -0.2186
     37 C           1.3490    3.4490    9.4180 C.3     1  UNL1        0.2122
     38 O           1.2830    4.4430   10.4240 O.3     1  UNL1       -0.2177
     39 C           1.6670    4.0870    8.0500 C.3     1  UNL1        0.1696
     40 O           1.6260    3.1190    6.9990 O.3     1  UNL1       -0.3276
     41 C           0.7990    5.3140    7.7340 C.3     1  UNL1        0.1415
     42 N           1.2470    5.9850    6.5030 N.3     1  UNL1       -0.1286
@<TRIPOS>BOND
     1     1     2    1
     2     1     3    1
     3     1    10    1
     4     3     4    1
     5     3     5    1
     6     5     6    1
     7     5     7    1
     8     7     8    1
     9     7     9    1
    10     9    10    1
    11     9    11    1
    12    11    12    1
    13    13    14    1
    14    13    15    1
    15    13    21    1
    16    15    16    1
    17    16    17    1
    18    16    18    1
    19    18     2    1
    20    18    19    1
    21    19    20    1
    22    19    21    1
    23    21    22    1
    24    23    20    1
    25    23    24    1
    26    23    29    1
    27    24    25    1
    28    24    26    1
    29    26    27    1
    30    26    28    1
    31    28    29    1
    32    28    30    1
    33    30    31    1
    34    32    27    1
    35    32    33    1
    36    32    40    1
    37    33    34    1
    38    33    35    1
    39    35    36    1
    40    35    37    1
    41    37    38    1
    42    37    39    1
    43    39    40    1
    44    39    41    1
    45    41    42    1
