2MXS_PAR_A_101
 OpenBabel10091713583D
Coordinates from PDB:2MXS:A:101 Model:1 without hydrogens
 87 90  0  0  0  0  0  0  0  0999 V2000
    0.8280    3.9720    0.3410 C   0  0  2  0  0  0  0  0  0  0  0  0
   -0.1530    3.2460   -0.4020 O   0  0  0  0  0  0  0  0  0  0  0  0
    0.4540    5.4590    0.4340 C   0  0  2  0  0  0  0  0  0  0  0  0
   -0.9010    5.6300    0.9900 N   0  0  0  0  0  0  0  0  0  0  0  0
    0.5790    6.1440   -0.9330 C   0  0  1  0  0  0  0  0  0  0  0  0
    0.3770    7.5360   -0.7810 O   0  0  0  0  0  0  0  0  0  0  0  0
    1.9730    5.8940   -1.5280 C   0  0  2  0  0  0  0  0  0  0  0  0
    2.0150    6.3960   -2.8500 O   0  0  0  0  0  0  0  0  0  0  0  0
    2.3270    4.3930   -1.5280 C   0  0  2  0  0  0  0  0  0  0  0  0
    2.1200    3.8140   -0.2400 O   0  0  0  0  0  0  0  0  0  0  0  0
    3.8070    4.2500   -1.9310 C   0  0  0  0  0  0  0  0  0  0  0  0
    4.2640    2.8730   -1.8580 O   0  0  0  0  0  0  0  0  0  0  0  0
   -1.3260   -0.8940   -0.2780 C   0  0  2  0  0  0  0  0  0  0  0  0
   -1.0550   -2.3270   -0.0470 N   0  0  0  0  0  0  0  0  0  0  0  0
   -0.4220   -0.3540   -1.3890 C   0  0  0  0  0  0  0  0  0  0  0  0
   -0.5950    1.1530   -1.5370 C   0  0  2  0  0  0  0  0  0  0  0  0
    0.2010    1.6460   -2.6680 N   0  0  0  0  0  0  0  0  0  0  0  0
   -0.1880    1.8250   -0.2050 C   0  0  2  0  0  0  0  0  0  0  0  0
   -1.1700    1.4220    0.8480 C   0  0  2  0  0  0  0  0  0  0  0  0
   -0.8040    2.0800    2.0470 O   0  0  0  0  0  0  0  0  0  0  0  0
   -1.1440   -0.0850    1.0200 C   0  0  1  0  0  0  0  0  0  0  0  0
   -2.1160   -0.5310    1.9470 O   0  0  0  0  0  0  0  0  0  0  0  0
   -1.8210    2.3030    3.0180 C   0  0  1  0  0  0  0  0  0  0  0  0
   -1.2860    1.8320    4.3720 C   0  0  2  0  0  0  0  0  0  0  0  0
   -2.3430    1.2610    5.1200 O   0  0  0  0  0  0  0  0  0  0  0  0
   -0.7540    3.1330    4.9880 C   0  0  2  0  0  0  0  0  0  0  0  0
   -0.6430    3.0670    6.4100 O   0  0  0  0  0  0  0  0  0  0  0  0
   -1.8050    4.1220    4.4690 C   0  0  2  0  0  0  0  0  0  0  0  0
   -2.0690    3.6980    3.1390 O   0  0  0  0  0  0  0  0  0  0  0  0
   -1.3410    5.5830    4.4430 C   0  0  0  0  0  0  0  0  0  0  0  0
   -1.8470    6.3090    5.5430 O   0  0  0  0  0  0  0  0  0  0  0  0
    0.4630    2.3020    6.8850 C   0  0  2  0  0  0  0  0  0  0  0  0
    0.1500    1.6170    8.2240 C   0  0  2  0  0  0  0  0  0  0  0  0
   -1.0660    0.7930    8.1220 N   0  0  0  0  0  0  0  0  0  0  0  0
    0.0390    2.6450    9.3600 C   0  0  1  0  0  0  0  0  0  0  0  0
   -0.1630    1.9530   10.5770 O   0  0  0  0  0  0  0  0  0  0  0  0
    1.3490    3.4490    9.4180 C   0  0  2  0  0  0  0  0  0  0  0  0
    1.2830    4.4430   10.4240 O   0  0  0  0  0  0  0  0  0  0  0  0
    1.6670    4.0870    8.0500 C   0  0  1  0  0  0  0  0  0  0  0  0
    1.6260    3.1190    6.9990 O   0  0  0  0  0  0  0  0  0  0  0  0
    0.7990    5.3140    7.7340 C   0  0  0  0  0  0  0  0  0  0  0  0
    1.2470    5.9850    6.5030 N   0  0  0  0  0  0  0  0  0  0  0  0
    0.8551    3.5725    1.3333 H   0  0  0  0  0  0  0  0  0  0  0  0
    1.1444    5.9304    1.1018 H   0  0  0  0  0  0  0  0  0  0  0  0
   -1.5808    5.1884    0.3709 H   0  0  0  0  0  0  0  0  0  0  0  0
   -1.1118    6.6246    1.0722 H   0  0  0  0  0  0  0  0  0  0  0  0
   -0.1592    5.7392   -1.5934 H   0  0  0  0  0  0  0  0  0  0  0  0
    1.0490    7.8967   -0.1816 H   0  0  0  0  0  0  0  0  0  0  0  0
    2.6933    6.4004   -0.9200 H   0  0  0  0  0  0  0  0  0  0  0  0
    1.3593    5.9315   -3.3932 H   0  0  0  0  0  0  0  0  0  0  0  0
    1.6934    3.8797   -2.2208 H   0  0  0  0  0  0  0  0  0  0  0  0
    4.4029    4.8464   -1.2721 H   0  0  0  0  0  0  0  0  0  0  0  0
    3.9046    4.5756   -2.9456 H   0  0  0  0  0  0  0  0  0  0  0  0
    4.1852    2.5541   -0.9453 H   0  0  0  0  0  0  0  0  0  0  0  0
   -2.3441   -0.7885   -0.5899 H   0  0  0  0  0  0  0  0  0  0  0  0
   -0.0870   -2.4461    0.2516 H   0  0  0  0  0  0  0  0  0  0  0  0
   -1.2106   -2.8461   -0.9111 H   0  0  0  0  0  0  0  0  0  0  0  0
   -0.6778   -0.8296   -2.3127 H   0  0  0  0  0  0  0  0  0  0  0  0
    0.5968   -0.5608   -1.1356 H   0  0  0  0  0  0  0  0  0  0  0  0
   -1.6159    1.3957   -1.7461 H   0  0  0  0  0  0  0  0  0  0  0  0
    1.1859    1.4341   -2.5086 H   0  0  0  0  0  0  0  0  0  0  0  0
    0.0800    2.6551   -2.7547 H   0  0  0  0  0  0  0  0  0  0  0  0
    0.7847    1.5142    0.1147 H   0  0  0  0  0  0  0  0  0  0  0  0
   -2.1667    1.6990    0.5744 H   0  0  0  0  0  0  0  0  0  0  0  0
   -0.1543   -0.2692    1.3825 H   0  0  0  0  0  0  0  0  0  0  0  0
   -3.0028   -0.3533    1.5963 H   0  0  0  0  0  0  0  0  0  0  0  0
   -2.7121    1.7856    2.7296 H   0  0  0  0  0  0  0  0  0  0  0  0
   -0.5312    1.0750    4.3266 H   0  0  0  0  0  0  0  0  0  0  0  0
   -3.0665    1.9023    5.1989 H   0  0  0  0  0  0  0  0  0  0  0  0
    0.2481    3.3946    4.7191 H   0  0  0  0  0  0  0  0  0  0  0  0
   -2.6542    4.1118    5.1198 H   0  0  0  0  0  0  0  0  0  0  0  0
   -1.6836    6.0400    3.5382 H   0  0  0  0  0  0  0  0  0  0  0  0
   -0.2724    5.5956    4.4969 H   0  0  0  0  0  0  0  0  0  0  0  0
   -2.8165    6.3091    5.5119 H   0  0  0  0  0  0  0  0  0  0  0  0
    0.6529    1.5317    6.1670 H   0  0  0  0  0  0  0  0  0  0  0  0
    0.9649    0.9651    8.4603 H   0  0  0  0  0  0  0  0  0  0  0  0
   -1.8626    1.3889    7.8968 H   0  0  0  0  0  0  0  0  0  0  0  0
   -1.2338    0.3229    9.0115 H   0  0  0  0  0  0  0  0  0  0  0  0
   -0.7808    3.3122    9.1936 H   0  0  0  0  0  0  0  0  0  0  0  0
    0.5785    1.3470   10.7313 H   0  0  0  0  0  0  0  0  0  0  0  0
    2.1401    2.7713    9.6625 H   0  0  0  0  0  0  0  0  0  0  0  0
    0.5693    5.0663   10.2164 H   0  0  0  0  0  0  0  0  0  0  0  0
    2.6702    4.4530    8.1179 H   0  0  0  0  0  0  0  0  0  0  0  0
    0.8614    6.0041    8.5493 H   0  0  0  0  0  0  0  0  0  0  0  0
   -0.2094    4.9859    7.5912 H   0  0  0  0  0  0  0  0  0  0  0  0
    2.2082    6.3052    6.6208 H   0  0  0  0  0  0  0  0  0  0  0  0
    0.6432    6.7847    6.3126 H   0  0  0  0  0  0  0  0  0  0  0  0
  1  2  1  0  0  0  0
  1  3  1  0  0  0  0
  1 10  1  0  0  0  0
  1 43  1  1  0  0  0
  2 18  1  0  0  0  0
  3  4  1  0  0  0  0
  3  5  1  0  0  0  0
  3 44  1  1  0  0  0
  4 45  1  0  0  0  0
  4 46  1  0  0  0  0
  5  6  1  0  0  0  0
  5  7  1  0  0  0  0
  5 47  1  6  0  0  0
  6 48  1  0  0  0  0
  7  8  1  0  0  0  0
  7  9  1  0  0  0  0
  7 49  1  1  0  0  0
  8 50  1  0  0  0  0
  9 10  1  0  0  0  0
  9 11  1  0  0  0  0
  9 51  1  6  0  0  0
 11 12  1  0  0  0  0
 11 52  1  0  0  0  0
 11 53  1  0  0  0  0
 12 54  1  0  0  0  0
 13 14  1  0  0  0  0
 13 15  1  0  0  0  0
 13 21  1  0  0  0  0
 13 55  1  6  0  0  0
 14 56  1  0  0  0  0
 14 57  1  0  0  0  0
 15 16  1  0  0  0  0
 15 58  1  0  0  0  0
 15 59  1  0  0  0  0
 16 17  1  0  0  0  0
 16 18  1  0  0  0  0
 16 60  1  6  0  0  0
 17 61  1  0  0  0  0
 17 62  1  0  0  0  0
 18 19  1  0  0  0  0
 18 63  1  1  0  0  0
 19 20  1  0  0  0  0
 19 21  1  0  0  0  0
 19 64  1  6  0  0  0
 20 23  1  0  0  0  0
 21 22  1  0  0  0  0
 21 65  1  1  0  0  0
 22 66  1  0  0  0  0
 23 24  1  0  0  0  0
 23 29  1  0  0  0  0
 23 67  1  6  0  0  0
 24 25  1  0  0  0  0
 24 26  1  0  0  0  0
 24 68  1  6  0  0  0
 25 69  1  0  0  0  0
 26 27  1  0  0  0  0
 26 28  1  0  0  0  0
 26 70  1  6  0  0  0
 27 32  1  0  0  0  0
 28 29  1  0  0  0  0
 28 30  1  0  0  0  0
 28 71  1  1  0  0  0
 30 31  1  0  0  0  0
 30 72  1  0  0  0  0
 30 73  1  0  0  0  0
 31 74  1  0  0  0  0
 32 33  1  0  0  0  0
 32 40  1  0  0  0  0
 32 75  1  6  0  0  0
 33 34  1  0  0  0  0
 33 35  1  0  0  0  0
 33 76  1  1  0  0  0
 34 77  1  0  0  0  0
 34 78  1  0  0  0  0
 35 36  1  0  0  0  0
 35 37  1  0  0  0  0
 35 79  1  6  0  0  0
 36 80  1  0  0  0  0
 37 38  1  0  0  0  0
 37 39  1  0  0  0  0
 37 81  1  1  0  0  0
 38 82  1  0  0  0  0
 39 40  1  0  0  0  0
 39 41  1  0  0  0  0
 39 83  1  1  0  0  0
 41 42  1  0  0  0  0
 41 84  1  0  0  0  0
 41 85  1  0  0  0  0
 42 86  1  0  0  0  0
 42 87  1  0  0  0  0
A    1
C11
A    2
O11
A    3
C21
A    4
N21
A    5
C31
A    6
O31
A    7
C41
A    8
O41
A    9
C51
A   10
O51
A   11
C61
A   12
O61
A   13
C12
A   14
N12
A   15
C22
A   16
C32
A   17
N32
A   18
C42
A   19
C52
A   20
O52
A   21
C62
A   22
O62
A   23
C13
A   24
C23
A   25
O23
A   26
C33
A   27
O33
A   28
C43
A   29
O43
A   30
C53
A   31
O53
A   32
C14
A   33
C24
A   34
N24
A   35
C34
A   36
O34
A   37
C44
A   38
O44
A   39
C54
A   40
O54
A   41
C64
A   42
N64
M  END
>  <InstanceId>
2MXS_PAR_A_101

>  <ChemCompId>
PAR

>  <PdbId>
2MXS

>  <ChainId>
A

>  <ResidueNumber>
101

>  <InsertionCode>


>  <Model>
1

>  <AltIds>


>  <MissingHeavyAtoms>
0

>  <ObservedFormula>
C23 N5 O14

>  <Name>
PAROMOMYCIN

>  <SystematicName>
(2R,3S,4R,5R,6S)-5-amino-6-[(1R,2R,3S,4R,6S)-4,6-diamino-2-[(2S,3R,4S,5R)-4-[(2R,3R,4R,5S,6S)-3-amino-6-(aminomethyl)-4,5-dihydroxy-oxan-2-yl]oxy-3-hydroxy-5-(hydroxymethyl)oxolan-2-yl]oxy-3-hydroxy-cyclohexyl]oxy-2-(hydroxymethyl)oxane-3,4-diol

>  <Synonyms>
PAROMOMYCIN I, AMMINOSIDIN, CATENULIN, CRESTOMYCIN, MONOMYCIN A, NEOMYCIN E

>  <Type>
NON-POLYMER

>  <Formula>
C23 H45 N5 O14

>  <MolecularWeight>
615.628

>  <ModifiedDate>
2011-06-04

>  <Parent>


>  <OneLetterCode>


>  <SubcomponentList>


>  <AmbiguousFlag>
N

>  <InChI>
InChI=1S/C23H45N5O14/c24-2-7-13(32)15(34)10(27)21(37-7)41-19-9(4-30)39-23(17(19)36)42-20-12(31)5(25)1-6(26)18(20)40-22-11(28)16(35)14(33)8(3-29)38-22/h5-23,29-36H,1-4,24-28H2/t5-,6+,7+,8-,9-,10-,11-,12+,13-,14-,15-,16-,17-,18-,19-,20-,21-,22-,23+/m1/s1

>  <InChIKey>
UOZODPSAJZTQNH-LSWIJEOBSA-N

>  <SMILES>
C1[C@H]([C@@H]([C@H]([C@@H]([C@H]1N)O[C@@H]2[C@@H]([C@H]([C@@H]([C@H](O2)CO)O)O)N)O[C@H]3[C@@H]([C@@H]([C@H](O3)CO)O[C@@H]4[C@@H]([C@H]([C@@H]([C@@H](O4)CN)O)O)N)O)O)N

$$$$
