REMARK  9 active torsions:
REMARK  status: ('A' for Active; 'I' for Inactive)
REMARK    1  A    between atoms: C_1  and  O_2 
REMARK    2  A    between atoms: C_18  and  O_2 
REMARK    3  A    between atoms: C_9  and  C_11 
REMARK    4  A    between atoms: C_19  and  O_20 
REMARK    5  A    between atoms: C_23  and  O_20 
REMARK    6  A    between atoms: C_26  and  O_27 
REMARK    7  A    between atoms: C_32  and  O_27 
REMARK    8  A    between atoms: C_28  and  C_30 
REMARK    9  A    between atoms: C_39  and  C_41 
ROOT
ATOM      1  C   UNL d   1      -1.326  -0.894  -0.278  0.00  0.00     0.337 C 
ATOM      2  N   UNL d   1      -1.055  -2.327  -0.047  0.00  0.00     0.619 N 
ATOM      3  C   UNL d   1      -0.422  -0.354  -1.389  0.00  0.00     0.084 C 
ATOM      4  C   UNL d   1      -0.595   1.153  -1.537  0.00  0.00     0.333 C 
ATOM      5  N   UNL d   1       0.201   1.646  -2.668  0.00  0.00     0.619 N 
ATOM      6  C   UNL d   1      -0.188   1.825  -0.205  0.00  0.00     0.184 C 
ATOM      7  C   UNL d   1      -1.170   1.422   0.848  0.00  0.00     0.180 C 
ATOM      8  C   UNL d   1      -1.144  -0.085   1.020  0.00  0.00     0.218 C 
ATOM      9  O   UNL d   1      -2.116  -0.531   1.947  0.00  0.00    -0.218 OA
ENDROOT
BRANCH   7  10
ATOM     10  O   UNL d   1      -0.804   2.080   2.047  0.00  0.00    -0.326 OA
BRANCH  10  11
ATOM     11  C   UNL d   1      -1.821   2.303   3.018  0.00  0.00     0.270 C 
ATOM     12  C   UNL d   1      -1.286   1.832   4.372  0.00  0.00     0.238 C 
ATOM     13  O   UNL d   1      -2.343   1.261   5.120  0.00  0.00    -0.215 OA
ATOM     14  C   UNL d   1      -0.754   3.133   4.988  0.00  0.00     0.183 C 
ATOM     15  C   UNL d   1      -1.805   4.122   4.469  0.00  0.00     0.181 C 
ATOM     16  O   UNL d   1      -2.069   3.698   3.139  0.00  0.00    -0.326 OA
BRANCH  14  17
ATOM     17  O   UNL d   1      -0.643   3.067   6.410  0.00  0.00    -0.326 OA
BRANCH  17  18
ATOM     18  C   UNL d   1       0.463   2.302   6.885  0.00  0.00     0.277 C 
ATOM     19  C   UNL d   1       0.150   1.617   8.224  0.00  0.00     0.390 C 
ATOM     20  N   UNL d   1      -1.066   0.793   8.122  0.00  0.00     0.624 N 
ATOM     21  C   UNL d   1       0.039   2.645   9.360  0.00  0.00     0.227 C 
ATOM     22  O   UNL d   1      -0.163   1.953  10.577  0.00  0.00    -0.218 OA
ATOM     23  C   UNL d   1       1.349   3.449   9.418  0.00  0.00     0.214 C 
ATOM     24  O   UNL d   1       1.283   4.443  10.424  0.00  0.00    -0.218 OA
ATOM     25  C   UNL d   1       1.667   4.087   8.050  0.00  0.00     0.190 C 
ATOM     26  O   UNL d   1       1.626   3.119   6.999  0.00  0.00    -0.327 OA
BRANCH  25  27
ATOM     27  C   UNL d   1       0.799   5.314   7.734  0.00  0.00     0.370 C 
ATOM     28  N   UNL d   1       1.247   5.985   6.503  0.00  0.00     0.621 N 
ENDBRANCH  25  27
ENDBRANCH  17  18
ENDBRANCH  14  17
BRANCH  15  29
ATOM     29  C   UNL d   1      -1.341   5.583   4.443  0.00  0.00     0.214 C 
ATOM     30  O   UNL d   1      -1.847   6.309   5.543  0.00  0.00    -0.218 OA
ENDBRANCH  15  29
ENDBRANCH  10  11
ENDBRANCH   7  10
BRANCH   6  31
ATOM     31  O   UNL d   1      -0.153   3.246  -0.402  0.00  0.00    -0.327 OA
BRANCH  31  32
ATOM     32  C   UNL d   1       0.828   3.972   0.341  0.00  0.00     0.277 C 
ATOM     33  C   UNL d   1       0.454   5.459   0.434  0.00  0.00     0.390 C 
ATOM     34  N   UNL d   1      -0.901   5.630   0.990  0.00  0.00     0.624 N 
ATOM     35  C   UNL d   1       0.579   6.144  -0.933  0.00  0.00     0.227 C 
ATOM     36  O   UNL d   1       0.377   7.536  -0.781  0.00  0.00    -0.218 OA
ATOM     37  C   UNL d   1       1.973   5.894  -1.528  0.00  0.00     0.214 C 
ATOM     38  O   UNL d   1       2.015   6.396  -2.850  0.00  0.00    -0.218 OA
ATOM     39  C   UNL d   1       2.327   4.393  -1.528  0.00  0.00     0.184 C 
ATOM     40  O   UNL d   1       2.120   3.814  -0.240  0.00  0.00    -0.326 OA
BRANCH  39  41
ATOM     41  C   UNL d   1       3.807   4.250  -1.931  0.00  0.00     0.214 C 
ATOM     42  O   UNL d   1       4.264   2.873  -1.858  0.00  0.00    -0.218 OA
ENDBRANCH  39  41
ENDBRANCH  31  32
ENDBRANCH   6  31
TORSDOF 9
