REMARK  16 active torsions:
REMARK  status: ('A' for Active; 'I' for Inactive)
REMARK    1  A    between atoms: C_1  and  O_27 
REMARK    2  A    between atoms: C_2  and  N_26 
REMARK    3  A    between atoms: C_6  and  O_24 
REMARK    4  A    between atoms: C_7  and  N_22 
REMARK    5  A    between atoms: C_8  and  O_10 
REMARK    6  A    between atoms: C_11  and  O_10 
REMARK    7  A    between atoms: C_12  and  O_21 
REMARK    8  A    between atoms: C_13  and  O_20 
REMARK    9  A    between atoms: C_14  and  N_19 
REMARK   10  A    between atoms: C_15  and  C_16 
REMARK   11  A    between atoms: C_16  and  O_17 
REMARK   12  A    between atoms: O_27  and  C_28 
REMARK   13  A    between atoms: C_29  and  O_37 
REMARK   14  A    between atoms: C_30  and  O_36 
REMARK   15  A    between atoms: C_31  and  N_35 
REMARK   16  A    between atoms: C_33  and  N_34 
ROOT
ATOM      1  C   UNL d   1       1.266   4.050  -2.347  0.00  0.00     0.293 C 
ATOM      2  C   UNL d   1       0.522   2.800  -2.921  0.00  0.00     0.275 C 
ATOM      3  C   UNL d   1       1.045   1.548  -2.210  0.00  0.00     0.075 C 
ATOM      4  C   UNL d   1       2.536   1.454  -2.509  0.00  0.00     0.158 C 
ATOM      5  C   UNL d   1       3.275   2.758  -2.168  0.00  0.00     0.184 C 
ATOM      6  C   UNL d   1       4.660   2.643  -2.820  0.00  0.00     0.187 C 
ATOM      7  C   UNL d   1       5.384   1.353  -2.339  0.00  0.00     0.305 C 
ATOM      8  C   UNL d   1       4.445   0.083  -2.309  0.00  0.00     0.299 C 
ATOM      9  O   UNL d   1       3.151   0.402  -1.775  0.00  0.00    -0.351 OA
ATOM     10  O   UNL d   1       2.654   3.946  -2.676  0.00  0.00    -0.349 OA
ENDROOT
BRANCH   1  11
ATOM     11  O   UNL d   1       1.031   4.217  -0.941  0.00  0.00    -0.349 OA
BRANCH  11  12
ATOM     12  C   UNL d   1       1.680   5.359  -0.340  0.00  0.00     0.189 C 
ATOM     13  C   UNL d   1       1.167   6.731  -0.839  0.00  0.00     0.180 C 
ATOM     14  C   UNL d   1      -0.304   6.973  -0.443  0.00  0.00     0.182 C 
ATOM     15  C   UNL d   1      -0.543   6.880   1.087  0.00  0.00     0.251 C 
ATOM     16  C   UNL d   1       0.104   5.618   1.688  0.00  0.00     0.076 C 
ATOM     17  C   UNL d   1       1.530   5.285   1.215  0.00  0.00     0.251 C 
BRANCH  13  18
ATOM     18  O   UNL d   1       1.990   7.805  -0.348  0.00  0.00    -0.390 OA
ATOM     19  H   UNL d   1       2.569   7.427   0.352  0.00  0.00     0.210 HD
ENDBRANCH  13  18
BRANCH  14  20
ATOM     20  O   UNL d   1      -1.218   6.065  -1.068  0.00  0.00    -0.391 OA
ATOM     21  H   UNL d   1      -0.839   5.729  -1.896  0.00  0.00     0.210 HD
ENDBRANCH  14  20
BRANCH  15  22
ATOM     22  N   UNL d   1      -0.130   8.096   1.809  0.00  0.00     0.085 N 
ATOM     23  H   UNL d   1      -0.711   8.868   1.469  0.00  0.00     0.313 HD
ATOM     24  H   UNL d   1       0.811   8.362   1.512  0.00  0.00     0.313 HD
ENDBRANCH  15  22
BRANCH  17  25
ATOM     25  N   UNL d   1       2.521   6.162   1.883  0.00  0.00     0.085 N 
ATOM     26  H   UNL d   1       2.966   5.615   2.627  0.00  0.00     0.313 HD
ATOM     27  H   UNL d   1       2.017   6.882   2.415  0.00  0.00     0.313 HD
ENDBRANCH  17  25
ENDBRANCH  11  12
ENDBRANCH   1  11
BRANCH   2  28
ATOM     28  N   UNL d   1      -0.942   2.873  -2.904  0.00  0.00     0.087 N 
ATOM     29  H   UNL d   1      -1.286   2.619  -1.976  0.00  0.00     0.313 HD
ATOM     30  H   UNL d   1      -1.311   2.155  -3.531  0.00  0.00     0.313 HD
ENDBRANCH   2  28
BRANCH   6  31
ATOM     31  O   UNL d   1       4.452   2.672  -4.244  0.00  0.00    -0.391 OA
ATOM     32  H   UNL d   1       4.011   3.535  -4.416  0.00  0.00     0.210 HD
ENDBRANCH   6  31
BRANCH   7  33
ATOM     33  N   UNL d   1       6.735   1.114  -2.924  0.00  0.00     0.091 N 
ATOM     34  C   UNL d   1       6.791   1.123  -4.378  0.00  0.00     0.307 C 
ATOM     35  H   UNL d   1       7.054   0.204  -2.588  0.00  0.00     0.316 HD
ENDBRANCH   7  33
BRANCH   8  36
ATOM     36  O   UNL d   1       5.087  -0.903  -1.476  0.00  0.00    -0.327 OA
BRANCH  36  37
ATOM     37  C   UNL d   1       4.257  -2.048  -1.236  0.00  0.00     0.294 C 
ATOM     38  C   UNL d   1       4.949  -2.910  -0.150  0.00  0.00     0.204 C 
ATOM     39  C   UNL d   1       4.179  -4.229   0.065  0.00  0.00     0.187 C 
ATOM     40  C   UNL d   1       3.900  -4.950  -1.283  0.00  0.00     0.279 C 
ATOM     41  C   UNL d   1       3.257  -3.962  -2.292  0.00  0.00     0.183 C 
ATOM     42  O   UNL d   1       4.095  -2.797  -2.442  0.00  0.00    -0.349 OA
BRANCH  38  43
ATOM     43  O   UNL d   1       6.308  -3.229  -0.498  0.00  0.00    -0.388 OA
ATOM     44  H   UNL d   1       6.447  -2.869  -1.397  0.00  0.00     0.210 HD
ENDBRANCH  38  43
BRANCH  39  45
ATOM     45  O   UNL d   1       2.929  -4.022   0.734  0.00  0.00    -0.391 OA
ATOM     46  H   UNL d   1       3.010  -3.272   1.348  0.00  0.00     0.210 HD
ENDBRANCH  39  45
BRANCH  40  47
ATOM     47  N   UNL d   1       5.123  -5.527  -1.885  0.00  0.00     0.088 N 
ATOM     48  H   UNL d   1       5.805  -5.724  -1.153  0.00  0.00     0.313 HD
ATOM     49  H   UNL d   1       5.573  -4.815  -2.466  0.00  0.00     0.313 HD
ENDBRANCH  40  47
BRANCH  41  50
ATOM     50  C   UNL d   1       1.787  -3.608  -1.963  0.00  0.00     0.198 C 
BRANCH  50  51
ATOM     51  O   UNL d   1       1.242  -2.691  -2.914  0.00  0.00    -0.398 OA
ATOM     52  H   UNL d   1       1.412  -3.060  -3.798  0.00  0.00     0.209 HD
ENDBRANCH  50  51
ENDBRANCH  41  50
ENDBRANCH  36  37
ENDBRANCH   8  36
TORSDOF 16
