2G5K_AM2_A_102
 OpenBabel03221817233D

 78 81  0  0  1  0  0  0  0  0999 V2000
    1.2665    4.0497   -2.3472 C   0  0  2  0  0  0  0  0  0  0  0  0
    0.8838    4.9236   -2.8840 H   0  0  0  0  0  0  0  0  0  0  0  0
    0.5225    2.8004   -2.9206 C   0  0  1  0  0  0  0  0  0  0  0  0
    0.8084    2.7283   -3.9802 H   0  0  0  0  0  0  0  0  0  0  0  0
    1.0454    1.5485   -2.2104 C   0  0  0  0  0  0  0  0  0  0  0  0
    2.5358    1.4542   -2.5090 C   0  0  1  0  0  0  0  0  0  0  0  0
    2.6063    1.2248   -3.5819 H   0  0  0  0  0  0  0  0  0  0  0  0
    3.2751    2.7580   -2.1678 C   0  0  1  0  0  0  0  0  0  0  0  0
    3.3968    2.8561   -1.0815 H   0  0  0  0  0  0  0  0  0  0  0  0
    4.6601    2.6428   -2.8204 C   0  0  1  0  0  0  0  0  0  0  0  0
    5.2661    3.5242   -2.5804 H   0  0  0  0  0  0  0  0  0  0  0  0
    5.3840    1.3526   -2.3391 C   0  0  1  0  0  0  0  0  0  0  0  0
    5.6015    1.5480   -1.2788 H   0  0  0  0  0  0  0  0  0  0  0  0
    4.4454    0.0834   -2.3095 C   0  0  2  0  0  0  0  0  0  0  0  0
    4.3281   -0.3338   -3.3175 H   0  0  0  0  0  0  0  0  0  0  0  0
    3.1505    0.4015   -1.7748 O   0  0  0  0  0  0  0  0  0  0  0  0
    5.0866   -0.9034   -1.4756 O   0  0  0  0  0  0  0  0  0  0  0  0
    4.2571   -2.0479   -1.2356 C   0  0  2  0  0  0  0  0  0  0  0  0
    3.2892   -1.7195   -0.8443 H   0  0  0  0  0  0  0  0  0  0  0  0
    4.9494   -2.9103   -0.1502 C   0  0  1  0  0  0  0  0  0  0  0  0
    4.9964   -2.3466    0.7872 H   0  0  0  0  0  0  0  0  0  0  0  0
    4.1790   -4.2291    0.0653 C   0  0  2  0  0  0  0  0  0  0  0  0
    4.7629   -4.8991    0.7085 H   0  0  0  0  0  0  0  0  0  0  0  0
    3.8998   -4.9501   -1.2832 C   0  0  1  0  0  0  0  0  0  0  0  0
    3.2031   -5.7812   -1.1104 H   0  0  0  0  0  0  0  0  0  0  0  0
    3.2574   -3.9625   -2.2918 C   0  0  1  0  0  0  0  0  0  0  0  0
    3.2503   -4.4332   -3.2853 H   0  0  0  0  0  0  0  0  0  0  0  0
    1.7872   -3.6082   -1.9627 C   0  0  0  0  0  0  0  0  0  0  0  0
    1.2425   -2.6912   -2.9144 O   0  0  0  0  0  0  0  0  0  0  0  0
    4.0951   -2.7974   -2.4423 O   0  0  0  0  0  0  0  0  0  0  0  0
    5.1226   -5.5265   -1.8853 N   0  0  0  0  0  0  0  0  0  0  0  0
    2.9287   -4.0216    0.7335 O   0  0  0  0  0  0  0  0  0  0  0  0
    6.3076   -3.2288   -0.4985 O   0  0  0  0  0  0  0  0  0  0  0  0
    6.7354    1.1144   -2.9237 N   0  0  0  0  0  0  0  0  0  0  0  0
    6.7906    1.1229   -4.3781 C   0  0  0  0  0  0  0  0  0  0  0  0
    4.4522    2.6721   -4.2437 O   0  0  0  0  0  0  0  0  0  0  0  0
    2.6536    3.9461   -2.6758 O   0  0  0  0  0  0  0  0  0  0  0  0
   -0.9421    2.8730   -2.9036 N   0  0  0  0  0  0  0  0  0  0  0  0
    1.0307    4.2172   -0.9408 O   0  0  0  0  0  0  0  0  0  0  0  0
    1.6796    5.3588   -0.3402 C   0  0  1  0  0  0  0  0  0  0  0  0
    2.7538    5.2780   -0.5581 H   0  0  0  0  0  0  0  0  0  0  0  0
    1.1666    6.7307   -0.8388 C   0  0  1  0  0  0  0  0  0  0  0  0
    1.2405    6.7711   -1.9309 H   0  0  0  0  0  0  0  0  0  0  0  0
   -0.3042    6.9729   -0.4431 C   0  0  2  0  0  0  0  0  0  0  0  0
   -0.5942    7.9773   -0.7814 H   0  0  0  0  0  0  0  0  0  0  0  0
   -0.5435    6.8796    1.0871 C   0  0  1  0  0  0  0  0  0  0  0  0
   -1.6241    6.7812    1.2554 H   0  0  0  0  0  0  0  0  0  0  0  0
    0.1038    5.6184    1.6885 C   0  0  0  0  0  0  0  0  0  0  0  0
    1.5305    5.2851    1.2150 C   0  0  2  0  0  0  0  0  0  0  0  0
    1.7461    4.2532    1.5261 H   0  0  0  0  0  0  0  0  0  0  0  0
    2.5206    6.1619    1.8828 N   0  0  0  0  0  0  0  0  0  0  0  0
   -0.1295    8.0956    1.8092 N   0  0  0  0  0  0  0  0  0  0  0  0
   -1.2182    6.0651   -1.0684 O   0  0  0  0  0  0  0  0  0  0  0  0
    1.9897    7.8049   -0.3481 O   0  0  0  0  0  0  0  0  0  0  0  0
    0.5447    0.6418   -2.5751 H   0  0  0  0  0  0  0  0  0  0  0  0
    0.8636    1.5807   -1.1290 H   0  0  0  0  0  0  0  0  0  0  0  0
    1.1756   -4.5203   -1.9562 H   0  0  0  0  0  0  0  0  0  0  0  0
    1.6604   -3.1198   -0.9899 H   0  0  0  0  0  0  0  0  0  0  0  0
    1.4123   -3.0604   -3.7979 H   0  0  0  0  0  0  0  0  0  0  0  0
    5.8051   -5.7237   -1.1526 H   0  0  0  0  0  0  0  0  0  0  0  0
    5.5729   -4.8147   -2.4656 H   0  0  0  0  0  0  0  0  0  0  0  0
    3.0101   -3.2721    1.3479 H   0  0  0  0  0  0  0  0  0  0  0  0
    6.4467   -2.8693   -1.3975 H   0  0  0  0  0  0  0  0  0  0  0  0
    7.0537    0.2036   -2.5879 H   0  0  0  0  0  0  0  0  0  0  0  0
    6.6522    2.1276   -4.7891 H   0  0  0  0  0  0  0  0  0  0  0  0
    6.0717    0.4327   -4.8302 H   0  0  0  0  0  0  0  0  0  0  0  0
    7.7905    0.8144   -4.7001 H   0  0  0  0  0  0  0  0  0  0  0  0
    4.0106    3.5347   -4.4156 H   0  0  0  0  0  0  0  0  0  0  0  0
   -1.2861    2.6191   -1.9762 H   0  0  0  0  0  0  0  0  0  0  0  0
   -1.3113    2.1546   -3.5313 H   0  0  0  0  0  0  0  0  0  0  0  0
   -0.5417    4.7562    1.4588 H   0  0  0  0  0  0  0  0  0  0  0  0
    0.0876    5.6892    2.7912 H   0  0  0  0  0  0  0  0  0  0  0  0
    2.9663    5.6149    2.6274 H   0  0  0  0  0  0  0  0  0  0  0  0
    2.0173    6.8823    2.4152 H   0  0  0  0  0  0  0  0  0  0  0  0
   -0.7110    8.8680    1.4692 H   0  0  0  0  0  0  0  0  0  0  0  0
    0.8114    8.3620    1.5116 H   0  0  0  0  0  0  0  0  0  0  0  0
   -0.8385    5.7295   -1.8959 H   0  0  0  0  0  0  0  0  0  0  0  0
    2.5693    7.4270    0.3522 H   0  0  0  0  0  0  0  0  0  0  0  0
  1  2  1  0  0  0  0
  1  3  1  6  0  0  0
  1 37  1  0  0  0  0
  1 39  1  0  0  0  0
  3  5  1  0  0  0  0
  3 38  1  0  0  0  0
  3  4  1  6  0  0  0
  5  6  1  0  0  0  0
  5 55  1  0  0  0  0
  5 56  1  0  0  0  0
  6  7  1  0  0  0  0
  6  8  1  1  0  0  0
  6 16  1  0  0  0  0
  8  9  1  0  0  0  0
  8 10  1  6  0  0  0
  8 37  1  0  0  0  0
 10 11  1  0  0  0  0
 10 12  1  1  0  0  0
 10 36  1  0  0  0  0
 12 13  1  0  0  0  0
 12 14  1  6  0  0  0
 12 34  1  0  0  0  0
 14 16  1  0  0  0  0
 14 17  1  0  0  0  0
 14 15  1  6  0  0  0
 18 20  1  1  0  0  0
 18 30  1  0  0  0  0
 18 19  1  0  0  0  0
 18 17  1  0  0  0  0
 20 22  1  1  0  0  0
 20 33  1  0  0  0  0
 20 21  1  0  0  0  0
 22 24  1  6  0  0  0
 22 32  1  0  0  0  0
 22 23  1  0  0  0  0
 24 25  1  0  0  0  0
 24 26  1  6  0  0  0
 24 31  1  0  0  0  0
 26 30  1  0  0  0  0
 26 28  1  0  0  0  0
 26 27  1  6  0  0  0
 28 29  1  0  0  0  0
 28 57  1  0  0  0  0
 28 58  1  0  0  0  0
 29 59  1  0  0  0  0
 31 60  1  0  0  0  0
 31 61  1  0  0  0  0
 32 62  1  0  0  0  0
 33 63  1  0  0  0  0
 34 35  1  0  0  0  0
 34 64  1  0  0  0  0
 35 65  1  0  0  0  0
 35 66  1  0  0  0  0
 35 67  1  0  0  0  0
 36 68  1  0  0  0  0
 38 69  1  0  0  0  0
 38 70  1  0  0  0  0
 39 40  1  0  0  0  0
 40 41  1  0  0  0  0
 40 42  1  6  0  0  0
 42 44  1  1  0  0  0
 42 54  1  0  0  0  0
 42 43  1  0  0  0  0
 44 46  1  1  0  0  0
 44 53  1  0  0  0  0
 44 45  1  0  0  0  0
 46 47  1  1  0  0  0
 46 48  1  0  0  0  0
 46 52  1  0  0  0  0
 48 49  1  0  0  0  0
 48 71  1  0  0  0  0
 48 72  1  0  0  0  0
 49 50  1  0  0  0  0
 49 40  1  6  0  0  0
 49 51  1  0  0  0  0
 51 73  1  0  0  0  0
 51 74  1  0  0  0  0
 52 75  1  0  0  0  0
 52 76  1  0  0  0  0
 53 77  1  0  0  0  0
 54 78  1  0  0  0  0
M  END
$$$$
