@<TRIPOS>MOLECULE
2G5K_AM2_A_102
 78 81 0 0 0
SMALL
GASTEIGER

@<TRIPOS>ATOM
      1 C           1.2665    4.0497   -2.3472 C.3     1  UNL1        0.1752
      2 H           0.8838    4.9236   -2.8840 H       1  UNL1        0.0926
      3 C           0.5225    2.8004   -2.9206 C.3     1  UNL1        0.0590
      4 H           0.8084    2.7283   -3.9802 H       1  UNL1        0.0509
      5 C           1.0454    1.5485   -2.2104 C.3     1  UNL1       -0.0040
      6 C           2.5358    1.4542   -2.5090 C.3     1  UNL1        0.0920
      7 H           2.6063    1.2248   -3.5819 H       1  UNL1        0.0624
      8 C           3.2751    2.7580   -2.1678 C.3     1  UNL1        0.1153
      9 H           3.3968    2.8561   -1.0815 H       1  UNL1        0.0649
     10 C           4.6601    2.6428   -2.8204 C.3     1  UNL1        0.1038
     11 H           5.2661    3.5242   -2.5804 H       1  UNL1        0.0637
     12 C           5.3840    1.3526   -2.3391 C.3     1  UNL1        0.0877
     13 H           5.6015    1.5480   -1.2788 H       1  UNL1        0.0537
     14 C           4.4454    0.0834   -2.3095 C.3     1  UNL1        0.1803
     15 H           4.3281   -0.3338   -3.3175 H       1  UNL1        0.0928
     16 O           3.1505    0.4015   -1.7748 O.3     1  UNL1       -0.3436
     17 O           5.0866   -0.9034   -1.4756 O.3     1  UNL1       -0.3184
     18 C           4.2571   -2.0479   -1.2356 C.3     1  UNL1        0.1908
     19 H           3.2892   -1.7195   -0.8443 H       1  UNL1        0.0938
     20 C           4.9494   -2.9103   -0.1502 C.3     1  UNL1        0.1332
     21 H           4.9964   -2.3466    0.7872 H       1  UNL1        0.0671
     22 C           4.1790   -4.2291    0.0653 C.3     1  UNL1        0.1033
     23 H           4.7629   -4.8991    0.7085 H       1  UNL1        0.0637
     24 C           3.8998   -4.9501   -1.2832 C.3     1  UNL1        0.0626
     25 H           3.2031   -5.7812   -1.1104 H       1  UNL1        0.0511
     26 C           3.2574   -3.9625   -2.2918 C.3     1  UNL1        0.1023
     27 H           3.2503   -4.4332   -3.2853 H       1  UNL1        0.0636
     28 C           1.7872   -3.6082   -1.9627 C.3     1  UNL1        0.0720
     29 O           1.2425   -2.6912   -2.9144 O.3     1  UNL1       -0.3924
     30 O           4.0951   -2.7974   -2.4423 O.3     1  UNL1       -0.3415
     31 N           5.1226   -5.5265   -1.8853 N.3     1  UNL1       -0.3230
     32 O           2.9287   -4.0216    0.7335 O.3     1  UNL1       -0.3874
     33 O           6.3076   -3.2288   -0.4985 O.3     1  UNL1       -0.3841
     34 N           6.7354    1.1144   -2.9237 N.3     1  UNL1       -0.3099
     35 C           6.7906    1.1229   -4.3781 C.3     1  UNL1       -0.0153
     36 O           4.4522    2.6721   -4.2437 O.3     1  UNL1       -0.3874
     37 O           2.6536    3.9461   -2.6758 O.3     1  UNL1       -0.3413
     38 N          -0.9421    2.8730   -2.9036 N.3     1  UNL1       -0.3231
     39 O           1.0307    4.2172   -0.9408 O.3     1  UNL1       -0.3423
     40 C           1.6796    5.3588   -0.3402 C.3     1  UNL1        0.1051
     41 H           2.7538    5.2780   -0.5581 H       1  UNL1        0.0639
     42 C           1.1666    6.7307   -0.8388 C.3     1  UNL1        0.1101
     43 H           1.2405    6.7711   -1.9309 H       1  UNL1        0.0646
     44 C          -0.3042    6.9729   -0.4431 C.3     1  UNL1        0.0986
     45 H          -0.5942    7.9773   -0.7814 H       1  UNL1        0.0635
     46 C          -0.5435    6.8796    1.0871 C.3     1  UNL1        0.0351
     47 H          -1.6241    6.7812    1.2554 H       1  UNL1        0.0485
     48 C           0.1038    5.6184    1.6885 C.3     1  UNL1       -0.0175
     49 C           1.5305    5.2851    1.2150 C.3     1  UNL1        0.0355
     50 H           1.7461    4.2532    1.5261 H       1  UNL1        0.0485
     51 N           2.5206    6.1619    1.8828 N.3     1  UNL1       -0.3250
     52 N          -0.1295    8.0956    1.8092 N.3     1  UNL1       -0.3250
     53 O          -1.2182    6.0651   -1.0684 O.3     1  UNL1       -0.3876
     54 O           1.9897    7.8049   -0.3481 O.3     1  UNL1       -0.3866
     55 H           0.5447    0.6418   -2.5751 H       1  UNL1        0.0308
     56 H           0.8636    1.5807   -1.1290 H       1  UNL1        0.0308
     57 H           1.1756   -4.5203   -1.9562 H       1  UNL1        0.0583
     58 H           1.6604   -3.1198   -0.9899 H       1  UNL1        0.0583
     59 H           1.4123   -3.0604   -3.7979 H       1  UNL1        0.2095
     60 H           5.8051   -5.7237   -1.1526 H       1  UNL1        0.1186
     61 H           5.5729   -4.8147   -2.4656 H       1  UNL1        0.1186
     62 H           3.0101   -3.2721    1.3479 H       1  UNL1        0.2100
     63 H           6.4467   -2.8693   -1.3975 H       1  UNL1        0.2101
     64 H           7.0537    0.2036   -2.5879 H       1  UNL1        0.1221
     65 H           6.6522    2.1276   -4.7891 H       1  UNL1        0.0388
     66 H           6.0717    0.4327   -4.8302 H       1  UNL1        0.0388
     67 H           7.7905    0.8144   -4.7001 H       1  UNL1        0.0388
     68 H           4.0106    3.5347   -4.4156 H       1  UNL1        0.2100
     69 H          -1.2861    2.6191   -1.9762 H       1  UNL1        0.1186
     70 H          -1.3113    2.1546   -3.5313 H       1  UNL1        0.1186
     71 H          -0.5417    4.7562    1.4588 H       1  UNL1        0.0297
     72 H           0.0876    5.6892    2.7912 H       1  UNL1        0.0297
     73 H           2.9663    5.6149    2.6274 H       1  UNL1        0.1185
     74 H           2.0173    6.8823    2.4152 H       1  UNL1        0.1185
     75 H          -0.7110    8.8680    1.4692 H       1  UNL1        0.1185
     76 H           0.8114    8.3620    1.5116 H       1  UNL1        0.1185
     77 H          -0.8385    5.7295   -1.8959 H       1  UNL1        0.2100
     78 H           2.5693    7.4270    0.3522 H       1  UNL1        0.2100
@<TRIPOS>BOND
     1     1     2    1
     2     1     3    1
     3     1    37    1
     4     1    39    1
     5     3     5    1
     6     3    38    1
     7     3     4    1
     8     5     6    1
     9     5    55    1
    10     5    56    1
    11     6     7    1
    12     6     8    1
    13     6    16    1
    14     8     9    1
    15     8    10    1
    16     8    37    1
    17    10    11    1
    18    10    12    1
    19    10    36    1
    20    12    13    1
    21    12    14    1
    22    12    34    1
    23    14    16    1
    24    14    17    1
    25    14    15    1
    26    18    20    1
    27    18    30    1
    28    18    19    1
    29    18    17    1
    30    20    22    1
    31    20    33    1
    32    20    21    1
    33    22    24    1
    34    22    32    1
    35    22    23    1
    36    24    25    1
    37    24    26    1
    38    24    31    1
    39    26    30    1
    40    26    28    1
    41    26    27    1
    42    28    29    1
    43    28    57    1
    44    28    58    1
    45    29    59    1
    46    31    60    1
    47    31    61    1
    48    32    62    1
    49    33    63    1
    50    34    35    1
    51    34    64    1
    52    35    65    1
    53    35    66    1
    54    35    67    1
    55    36    68    1
    56    38    69    1
    57    38    70    1
    58    39    40    1
    59    40    41    1
    60    40    42    1
    61    42    44    1
    62    42    54    1
    63    42    43    1
    64    44    46    1
    65    44    53    1
    66    44    45    1
    67    46    47    1
    68    46    48    1
    69    46    52    1
    70    48    49    1
    71    48    71    1
    72    48    72    1
    73    49    50    1
    74    49    40    1
    75    49    51    1
    76    51    73    1
    77    51    74    1
    78    52    75    1
    79    52    76    1
    80    53    77    1
    81    54    78    1
