3FO6_6GO_A_91
 OpenBabel10091713573D
Coordinates from PDB:3FO6:A:91 Model:1 without hydrogens
 19 20  0  0  0  0  0  0  0  0999 V2000
   12.9640    8.3070    8.3860 C   0  0  0  0  0  0  0  0  0  0  0  0
   12.5350    9.0620    7.2490 O   0  0  0  0  0  0  0  0  0  0  0  0
   12.0410   10.2780    7.6090 C   0  0  0  0  0  0  0  0  0  0  0  0
   12.0020   10.6660    8.8930 N   0  0  0  0  0  0  0  0  0  0  0  0
   11.5750   11.1440    6.6260 C   0  0  0  0  0  0  0  0  0  0  0  0
   11.4500   11.0600    5.3050 N   0  0  0  0  0  0  0  0  0  0  0  0
   10.9080   12.1960    4.8730 C   0  0  0  0  0  0  0  0  0  0  0  0
   10.6880   13.0060    5.9060 N   0  0  0  0  0  0  0  0  0  0  0  0
   11.0890   12.3860    7.0130 C   0  0  0  0  0  0  0  0  0  0  0  0
   11.0760   12.7240    8.3110 N   0  0  0  0  0  0  0  0  0  0  0  0
   11.5250   11.8710    9.2450 C   0  0  0  0  0  0  0  0  0  0  0  0
   11.4680   12.2100   10.5310 N   0  0  0  0  0  0  0  0  0  0  0  0
   13.3446    7.3606    8.0628 H   0  0  0  0  0  0  0  0  0  0  0  0
   12.1351    8.1520    9.0446 H   0  0  0  0  0  0  0  0  0  0  0  0
   13.7332    8.8437    8.9010 H   0  0  0  0  0  0  0  0  0  0  0  0
   11.7120   10.2934    4.7456 H   0  0  0  0  0  0  0  0  0  0  0  0
   10.6915   12.4153    3.8881 H   0  0  0  0  0  0  0  0  0  0  0  0
   11.7963   11.5873   11.2192 H   0  0  0  0  0  0  0  0  0  0  0  0
   11.0976   13.0835   10.7939 H   0  0  0  0  0  0  0  0  0  0  0  0
  1 13  1  0  0  0  0
  1 14  1  0  0  0  0
  1 15  1  0  0  0  0
  2  1  1  0  0  0  0
  2  3  1  0  0  0  0
  3  4  1  0  0  0  0
  4 11  2  0  0  0  0
  5  3  2  0  0  0  0
  5  9  1  0  0  0  0
  6  5  1  0  0  0  0
  6 16  1  0  0  0  0
  7  6  1  0  0  0  0
  7  8  2  0  0  0  0
  7 17  1  0  0  0  0
  8  9  1  0  0  0  0
  9 10  2  0  0  0  0
 10 11  1  0  0  0  0
 11 12  1  0  0  0  0
 12 18  1  0  0  0  0
 12 19  1  0  0  0  0
M  END
$$$$
