REMARK  1 active torsions:
REMARK  status: ('A' for Active; 'I' for Inactive)
REMARK    1  A    between atoms: O_2  and  C_3 
ROOT
ATOM      1  C   UNL d   1      12.041  10.278   7.609  0.00  0.00     0.217 A 
ATOM      2  N   UNL d   1      12.002  10.666   8.893  0.00  0.00    -0.032 NA
ATOM      3  C   UNL d   1      11.575  11.144   6.626  0.00  0.00     0.161 A 
ATOM      4  N   UNL d   1      11.450  11.060   5.305  0.00  0.00    -0.217 NA
ATOM      5  C   UNL d   1      10.908  12.196   4.873  0.00  0.00     0.201 A 
ATOM      6  N   UNL d   1      10.688  13.006   5.906  0.00  0.00    -0.203 NA
ATOM      7  C   UNL d   1      11.089  12.386   7.013  0.00  0.00     0.204 A 
ATOM      8  N   UNL d   1      11.076  12.724   8.311  0.00  0.00    -0.037 NA
ATOM      9  C   UNL d   1      11.525  11.871   9.245  0.00  0.00     0.772 A 
ATOM     10  N   UNL d   1      11.468  12.210  10.531  0.00  0.00     0.062 N 
ENDROOT
BRANCH   1  11
ATOM     11  O   UNL d   1      12.535   9.062   7.249  0.00  0.00    -0.310 OA
ATOM     12  C   UNL d   1      12.964   8.307   8.386  0.00  0.00     0.183 C 
ENDBRANCH   1  11
TORSDOF 1
