3FO6_6GO_A_91
 OpenBabel10091713573D
Coordinates from PDB:3FO6:A:91 Model:1 without hydrogens
 12 13  0  0  0  0  0  0  0  0999 V2000
   12.9640    8.3070    8.3860 C   0  0  0  0  0  0  0  0  0  0  0  0
   12.5350    9.0620    7.2490 O   0  0  0  0  0  0  0  0  0  0  0  0
   12.0410   10.2780    7.6090 C   0  0  0  0  0  0  0  0  0  0  0  0
   12.0020   10.6660    8.8930 N   0  0  0  0  0  0  0  0  0  0  0  0
   11.5750   11.1440    6.6260 C   0  0  0  0  0  0  0  0  0  0  0  0
   11.4500   11.0600    5.3050 N   0  0  0  0  0  0  0  0  0  0  0  0
   10.9080   12.1960    4.8730 C   0  0  0  0  0  0  0  0  0  0  0  0
   10.6880   13.0060    5.9060 N   0  0  0  0  0  0  0  0  0  0  0  0
   11.0890   12.3860    7.0130 C   0  0  0  0  0  0  0  0  0  0  0  0
   11.0760   12.7240    8.3110 N   0  0  0  0  0  0  0  0  0  0  0  0
   11.5250   11.8710    9.2450 C   0  0  0  0  0  0  0  0  0  0  0  0
   11.4680   12.2100   10.5310 N   0  0  0  0  0  0  0  0  0  0  0  0
  2  1  1  0  0  0  0
  2  3  1  0  0  0  0
  3  4  1  0  0  0  0
  4 11  2  0  0  0  0
  5  3  2  0  0  0  0
  5  9  1  0  0  0  0
  6  5  1  0  0  0  0
  7  6  1  0  0  0  0
  7  8  2  0  0  0  0
  8  9  1  0  0  0  0
  9 10  2  0  0  0  0
 10 11  1  0  0  0  0
 11 12  1  0  0  0  0
A    1
C6A
A    2
O6
A    3
C6
A    4
N1
A    5
C5
A    6
N7
A    7
C8
A    8
N9
A    9
C4
A   10
N3
A   11
C2
A   12
N2
M  END
>  <InstanceId>
3FO6_6GO_A_91

>  <ChemCompId>
6GO

>  <PdbId>
3FO6

>  <ChainId>
A

>  <ResidueNumber>
91

>  <InsertionCode>


>  <Model>
1

>  <AltIds>


>  <MissingHeavyAtoms>
0

>  <ObservedFormula>
C6 N5 O

>  <Name>
6-O-methylguanine

>  <SystematicName>
6-methoxy-7H-purin-2-amine

>  <Synonyms>
6-methoxy-7H-purin-2-amine

>  <Type>
NON-POLYMER

>  <Formula>
C6 H7 N5 O

>  <MolecularWeight>
165.153

>  <ModifiedDate>
2011-06-04

>  <Parent>


>  <OneLetterCode>


>  <SubcomponentList>


>  <AmbiguousFlag>
N

>  <InChI>
InChI=1S/C6H7N5O/c1-12-5-3-4(9-2-8-3)10-6(7)11-5/h2H,1H3,(H3,7,8,9,10,11)

>  <InChIKey>
BXJHWYVXLGLDMZ-UHFFFAOYSA-N

>  <SMILES>
COc1c2c(nc[nH]2)nc(n1)N

$$$$
