@<TRIPOS>MOLECULE
3FO6_6GO_A_91
 12 13 0 0 0
SMALL
GASTEIGER
****
Coordinates from PDB:3FO6:A:91 Model:1 without hydrogens
@<TRIPOS>ATOM
      1 C          12.9640    8.3070    8.3860 C.3     1  UNL1        0.2543
      2 O          12.5350    9.0620    7.2490 O.3     1  UNL1       -0.4550
      3 C          12.0410   10.2780    7.6090 C.ar    1  UNL1        0.2487
      4 N          12.0020   10.6660    8.8930 N.ar    1  UNL1       -0.1748
      5 C          11.5750   11.1440    6.6260 C.ar    1  UNL1        0.1717
      6 N          11.4500   11.0600    5.3050 N.ar    1  UNL1       -0.2161
      7 C          10.9080   12.1960    4.8730 C.ar    1  UNL1        0.2005
      8 N          10.6880   13.0060    5.9060 N.ar    1  UNL1       -0.2031
      9 C          11.0890   12.3860    7.0130 C.ar    1  UNL1        0.1891
     10 N          11.0760   12.7240    8.3110 N.ar    1  UNL1       -0.1902
     11 C          11.5250   11.8710    9.2450 C.ar    1  UNL1        0.2606
     12 N          11.4680   12.2100   10.5310 N.pl3   1  UNL1       -0.0859
@<TRIPOS>BOND
     1     2     1    1
     2     2     3    1
     3     3     4   ar
     4     4    11   ar
     5     5     3   ar
     6     5     9   ar
     7     6     5   ar
     8     7     6   ar
     9     7     8   ar
    10     8     9   ar
    11     9    10   ar
    12    10    11   ar
    13    11    12    1
