@<TRIPOS>MOLECULE
1LC4_TOY_A_47
 69 71 0 0 0
SMALL
GASTEIGER

@<TRIPOS>ATOM
      1 C           0.1521   -0.7919   -0.1316 C.3     1  UNL1        0.1752
      2 H           0.1877    0.0605   -0.8006 H       1  UNL1        0.0926
      3 O           1.0220   -1.8164   -0.6053 O.3     1  UNL1       -0.3423
      4 C           1.4754   -1.8135   -1.9577 C.3     1  UNL1        0.1051
      5 H           2.3773   -2.4371   -1.8630 H       1  UNL1        0.0639
      6 C           1.9325   -0.4662   -2.5864 C.3     1  UNL1        0.0355
      7 H           1.4018    0.3829   -2.1606 H       1  UNL1        0.0485
      8 C           1.7032   -0.3367   -4.1243 C.3     1  UNL1       -0.0175
      9 C           1.4871   -1.6226   -4.9663 C.3     1  UNL1        0.0355
     10 H           0.5282   -1.5020   -5.4930 H       1  UNL1        0.0485
     11 N           2.5099   -1.7428   -6.0004 N.3     1  UNL1       -0.3250
     12 C           1.3873   -2.9194   -4.1239 C.3     1  UNL1        0.1051
     13 H           2.3950   -3.1958   -3.8212 H       1  UNL1        0.0639
     14 C           0.5229   -2.5712   -2.8937 C.3     1  UNL1        0.1104
     15 H          -0.3193   -1.9379   -3.1809 H       1  UNL1        0.0646
     16 O          -0.0319   -3.7303   -2.2986 O.3     1  UNL1       -0.3865
     17 O           0.8173   -3.9759   -4.8890 O.3     1  UNL1       -0.3413
     18 C           1.3503   -5.3130   -4.8438 C.3     1  UNL1        0.1874
     19 H           0.4444   -5.9184   -4.7535 H       1  UNL1        0.0937
     20 C           2.3115   -5.8411   -3.7433 C.3     1  UNL1        0.1234
     21 H           2.2689   -6.9425   -3.7837 H       1  UNL1        0.0660
     22 O           1.8862   -5.4465   -2.4351 O.3     1  UNL1       -0.3851
     23 C           3.7774   -5.4282   -3.9188 C.3     1  UNL1        0.0647
     24 H           3.9492   -4.4232   -3.5051 H       1  UNL1        0.0512
     25 N           4.6369   -6.3437   -3.1433 N.3     1  UNL1       -0.3229
     26 C           4.2295   -5.5150   -5.3740 C.3     1  UNL1        0.1012
     27 H           4.5232   -6.5429   -5.6291 H       1  UNL1        0.0636
     28 O           5.3962   -4.7043   -5.5264 O.3     1  UNL1       -0.3875
     29 C           3.1494   -5.0436   -6.3601 C.3     1  UNL1        0.1120
     30 H           2.9914   -3.9795   -6.2563 H       1  UNL1        0.0646
     31 O           1.9162   -5.7252   -6.1065 O.3     1  UNL1       -0.3406
     32 C           3.5533   -5.2931   -7.8183 C.3     1  UNL1        0.0730
     33 O           4.5745   -4.3721   -8.2097 O.3     1  UNL1       -0.3924
     34 N           3.3401   -0.2044   -2.2594 N.3     1  UNL1       -0.3250
     35 C           0.7228   -0.3125    1.2982 C.3     1  UNL1        0.0590
     36 H           1.6750    0.1974    1.1035 H       1  UNL1        0.0509
     37 N           1.0242   -1.4618    2.1579 N.3     1  UNL1       -0.3231
     38 C          -0.2359    0.6796    2.1117 C.3     1  UNL1       -0.0044
     39 C          -1.5347    0.7146    1.3018 C.3     1  UNL1        0.0842
     40 H          -1.3330   -0.3626    1.5937 H       1  UNL1        0.0620
     41 O          -0.9276    1.6190    0.3451 O.3     1  UNL1       -0.3891
     42 C          -2.2363   -0.1800    0.2333 C.3     1  UNL1        0.0998
     43 H          -3.0795   -0.7190    0.6851 H       1  UNL1        0.0635
     44 O          -1.2411   -1.2437   -0.1376 O.3     1  UNL1       -0.3427
     45 C          -2.7922    0.4663   -1.0700 C.3     1  UNL1        0.0221
     46 N          -2.0427    0.0773   -2.2630 N.3     1  UNL1       -0.3276
     47 H           2.4827    0.2995   -4.5636 H       1  UNL1        0.0297
     48 H           0.7871    0.2689   -4.2502 H       1  UNL1        0.0297
     49 H           3.0751   -0.9087   -6.0921 H       1  UNL1        0.1185
     50 H           2.0824   -1.8997   -6.9116 H       1  UNL1        0.1185
     51 H          -0.1082   -3.5780   -1.3428 H       1  UNL1        0.2100
     52 H           1.8243   -6.2576   -1.9055 H       1  UNL1        0.2101
     53 H           4.3710   -6.2880   -2.1634 H       1  UNL1        0.1186
     54 H           5.6025   -6.0172   -3.1934 H       1  UNL1        0.1186
     55 H           5.1219   -3.7763   -5.4542 H       1  UNL1        0.2100
     56 H           3.9477   -6.3063   -7.9767 H       1  UNL1        0.0584
     57 H           2.6991   -5.1522   -8.4953 H       1  UNL1        0.0584
     58 H           4.2136   -3.4740   -8.0843 H       1  UNL1        0.2095
     59 H           3.9539   -0.6272   -2.9557 H       1  UNL1        0.1185
     60 H           3.4988    0.7929   -2.2961 H       1  UNL1        0.1185
     61 H           2.0110   -1.4526    2.4104 H       1  UNL1        0.1186
     62 H           0.8693   -2.3303    1.6524 H       1  UNL1        0.1186
     63 H           0.2552    1.6593    2.2143 H       1  UNL1        0.0308
     64 H          -0.3888    0.3355    3.1468 H       1  UNL1        0.0308
     65 H          -1.2706    2.5002    0.5732 H       1  UNL1        0.2099
     66 H          -3.8328    0.1494   -1.2031 H       1  UNL1        0.0448
     67 H          -2.8187    1.5609   -1.0102 H       1  UNL1        0.0448
     68 H          -1.3722    0.8003   -2.5252 H       1  UNL1        0.1183
     69 H          -2.6692   -0.0477   -3.0559 H       1  UNL1        0.1183
@<TRIPOS>BOND
     1     1     2    1
     2     3     1    1
     3     4     3    1
     4     4     5    1
     5     6     4    1
     6     6     7    1
     7     8     6    1
     8     9     8    1
     9     9    10    1
    10    11     9    1
    11    12     9    1
    12    12    13    1
    13    14    12    1
    14    14    15    1
    15    14     4    1
    16    16    14    1
    17    17    12    1
    18    18    17    1
    19    18    19    1
    20    20    18    1
    21    20    21    1
    22    22    20    1
    23    23    20    1
    24    23    24    1
    25    25    23    1
    26    26    23    1
    27    26    27    1
    28    28    26    1
    29    29    26    1
    30    29    30    1
    31    31    29    1
    32    31    18    1
    33    32    29    1
    34    33    32    1
    35    34     6    1
    36    35     1    1
    37    35    36    1
    38    37    35    1
    39    38    35    1
    40    39    38    1
    41    39    40    1
    42    41    39    1
    43    42    39    1
    44    42    43    1
    45    44    42    1
    46    44     1    1
    47    45    42    1
    48    46    45    1
    49     8    47    1
    50     8    48    1
    51    11    49    1
    52    11    50    1
    53    16    51    1
    54    22    52    1
    55    25    53    1
    56    25    54    1
    57    28    55    1
    58    32    56    1
    59    32    57    1
    60    33    58    1
    61    34    59    1
    62    34    60    1
    63    37    61    1
    64    37    62    1
    65    38    63    1
    66    38    64    1
    67    41    65    1
    68    45    66    1
    69    45    67    1
    70    46    68    1
    71    46    69    1
