1LC4_TOY_A_47
  1228              3D

 69 71  0  0  0  0  0  0  0  0999 V2000
    0.1521   -0.7919   -0.1316 C   0  0  0  0  0  0  0  0  0  0  0  0
    0.1877    0.0605   -0.8006 H   0  0  0  0  0  0  0  0  0  0  0  0
    1.0220   -1.8164   -0.6053 O   0  0  0  0  0  0  0  0  0  0  0  0
    1.4754   -1.8135   -1.9577 C   0  0  0  0  0  0  0  0  0  0  0  0
    2.3773   -2.4371   -1.8630 H   0  0  0  0  0  0  0  0  0  0  0  0
    1.9325   -0.4662   -2.5864 C   0  0  0  0  0  0  0  0  0  0  0  0
    1.4018    0.3829   -2.1606 H   0  0  0  0  0  0  0  0  0  0  0  0
    1.7032   -0.3367   -4.1243 C   0  0  0  0  0  0  0  0  0  0  0  0
    1.4871   -1.6226   -4.9663 C   0  0  0  0  0  0  0  0  0  0  0  0
    0.5282   -1.5020   -5.4930 H   0  0  0  0  0  0  0  0  0  0  0  0
    2.5099   -1.7428   -6.0004 N   0  0  0  0  0  0  0  0  0  0  0  0
    1.3873   -2.9194   -4.1239 C   0  0  0  0  0  0  0  0  0  0  0  0
    2.3950   -3.1958   -3.8212 H   0  0  0  0  0  0  0  0  0  0  0  0
    0.5229   -2.5712   -2.8937 C   0  0  0  0  0  0  0  0  0  0  0  0
   -0.3193   -1.9379   -3.1809 H   0  0  0  0  0  0  0  0  0  0  0  0
   -0.0319   -3.7303   -2.2986 O   0  0  0  0  0  0  0  0  0  0  0  0
    0.8173   -3.9759   -4.8890 O   0  0  0  0  0  0  0  0  0  0  0  0
    1.3503   -5.3130   -4.8438 C   0  0  0  0  0  0  0  0  0  0  0  0
    0.4444   -5.9184   -4.7535 H   0  0  0  0  0  0  0  0  0  0  0  0
    2.3115   -5.8411   -3.7433 C   0  0  0  0  0  0  0  0  0  0  0  0
    2.2689   -6.9425   -3.7837 H   0  0  0  0  0  0  0  0  0  0  0  0
    1.8862   -5.4465   -2.4351 O   0  0  0  0  0  0  0  0  0  0  0  0
    3.7774   -5.4282   -3.9188 C   0  0  0  0  0  0  0  0  0  0  0  0
    3.9492   -4.4232   -3.5051 H   0  0  0  0  0  0  0  0  0  0  0  0
    4.6369   -6.3437   -3.1433 N   0  0  0  0  0  0  0  0  0  0  0  0
    4.2295   -5.5150   -5.3740 C   0  0  0  0  0  0  0  0  0  0  0  0
    4.5232   -6.5429   -5.6291 H   0  0  0  0  0  0  0  0  0  0  0  0
    5.3962   -4.7043   -5.5264 O   0  0  0  0  0  0  0  0  0  0  0  0
    3.1494   -5.0436   -6.3601 C   0  0  0  0  0  0  0  0  0  0  0  0
    2.9914   -3.9795   -6.2563 H   0  0  0  0  0  0  0  0  0  0  0  0
    1.9162   -5.7252   -6.1065 O   0  0  0  0  0  0  0  0  0  0  0  0
    3.5533   -5.2931   -7.8183 C   0  0  0  0  0  0  0  0  0  0  0  0
    4.5745   -4.3721   -8.2097 O   0  0  0  0  0  0  0  0  0  0  0  0
    3.3401   -0.2044   -2.2594 N   0  0  0  0  0  0  0  0  0  0  0  0
    0.7228   -0.3125    1.2982 C   0  0  0  0  0  0  0  0  0  0  0  0
    1.6750    0.1974    1.1035 H   0  0  0  0  0  0  0  0  0  0  0  0
    1.0242   -1.4618    2.1579 N   0  0  0  0  0  0  0  0  0  0  0  0
   -0.2359    0.6796    2.1117 C   0  0  0  0  0  0  0  0  0  0  0  0
   -1.5347    0.7146    1.3018 C   0  0  0  0  0  0  0  0  0  0  0  0
   -1.3330   -0.3626    1.5937 H   0  0  0  0  0  0  0  0  0  0  0  0
   -0.9276    1.6190    0.3451 O   0  0  0  0  0  0  0  0  0  0  0  0
   -2.2363   -0.1800    0.2333 C   0  0  0  0  0  0  0  0  0  0  0  0
   -3.0795   -0.7190    0.6851 H   0  0  0  0  0  0  0  0  0  0  0  0
   -1.2411   -1.2437   -0.1376 O   0  0  0  0  0  0  0  0  0  0  0  0
   -2.7922    0.4663   -1.0700 C   0  0  0  0  0  0  0  0  0  0  0  0
   -2.0427    0.0773   -2.2630 N   0  0  0  0  0  0  0  0  0  0  0  0
    2.4827    0.2995   -4.5636 H   0  0  0  0  0  0  0  0  0  0  0  0
    0.7871    0.2689   -4.2502 H   0  0  0  0  0  0  0  0  0  0  0  0
    3.0751   -0.9087   -6.0921 H   0  0  0  0  0  0  0  0  0  0  0  0
    2.0824   -1.8997   -6.9116 H   0  0  0  0  0  0  0  0  0  0  0  0
   -0.1082   -3.5780   -1.3428 H   0  0  0  0  0  0  0  0  0  0  0  0
    1.8243   -6.2576   -1.9055 H   0  0  0  0  0  0  0  0  0  0  0  0
    4.3710   -6.2880   -2.1634 H   0  0  0  0  0  0  0  0  0  0  0  0
    5.6025   -6.0172   -3.1934 H   0  0  0  0  0  0  0  0  0  0  0  0
    5.1219   -3.7763   -5.4542 H   0  0  0  0  0  0  0  0  0  0  0  0
    3.9477   -6.3063   -7.9767 H   0  0  0  0  0  0  0  0  0  0  0  0
    2.6991   -5.1522   -8.4953 H   0  0  0  0  0  0  0  0  0  0  0  0
    4.2136   -3.4740   -8.0843 H   0  0  0  0  0  0  0  0  0  0  0  0
    3.9539   -0.6272   -2.9557 H   0  0  0  0  0  0  0  0  0  0  0  0
    3.4988    0.7929   -2.2961 H   0  0  0  0  0  0  0  0  0  0  0  0
    2.0110   -1.4526    2.4104 H   0  0  0  0  0  0  0  0  0  0  0  0
    0.8693   -2.3303    1.6524 H   0  0  0  0  0  0  0  0  0  0  0  0
    0.2552    1.6593    2.2143 H   0  0  0  0  0  0  0  0  0  0  0  0
   -0.3888    0.3355    3.1468 H   0  0  0  0  0  0  0  0  0  0  0  0
   -1.2706    2.5002    0.5732 H   0  0  0  0  0  0  0  0  0  0  0  0
   -3.8328    0.1494   -1.2031 H   0  0  0  0  0  0  0  0  0  0  0  0
   -2.8187    1.5609   -1.0102 H   0  0  0  0  0  0  0  0  0  0  0  0
   -1.3722    0.8003   -2.5252 H   0  0  0  0  0  0  0  0  0  0  0  0
   -2.6692   -0.0477   -3.0559 H   0  0  0  0  0  0  0  0  0  0  0  0
  1  2  1  0  0  0  0
  3  1  1  0  0  0  0
  4  3  1  0  0  0  0
  4  5  1  0  0  0  0
  6  4  1  0  0  0  0
  6  7  1  0  0  0  0
  8  6  1  0  0  0  0
  9  8  1  0  0  0  0
  9 10  1  0  0  0  0
 11  9  1  0  0  0  0
 12  9  1  0  0  0  0
 12 13  1  0  0  0  0
 14 12  1  0  0  0  0
 14 15  1  0  0  0  0
 14  4  1  0  0  0  0
 16 14  1  0  0  0  0
 17 12  1  0  0  0  0
 18 17  1  0  0  0  0
 18 19  1  0  0  0  0
 20 18  1  0  0  0  0
 20 21  1  0  0  0  0
 22 20  1  0  0  0  0
 23 20  1  0  0  0  0
 23 24  1  0  0  0  0
 25 23  1  0  0  0  0
 26 23  1  0  0  0  0
 26 27  1  0  0  0  0
 28 26  1  0  0  0  0
 29 26  1  0  0  0  0
 29 30  1  0  0  0  0
 31 29  1  0  0  0  0
 31 18  1  0  0  0  0
 32 29  1  0  0  0  0
 33 32  1  0  0  0  0
 34  6  1  0  0  0  0
 35  1  1  0  0  0  0
 35 36  1  0  0  0  0
 37 35  1  0  0  0  0
 38 35  1  0  0  0  0
 39 38  1  0  0  0  0
 39 40  1  0  0  0  0
 41 39  1  0  0  0  0
 42 39  1  0  0  0  0
 42 43  1  0  0  0  0
 44 42  1  0  0  0  0
 44  1  1  0  0  0  0
 45 42  1  0  0  0  0
 46 45  1  0  0  0  0
  8 47  1  0  0  0  0
  8 48  1  0  0  0  0
 11 49  1  0  0  0  0
 11 50  1  0  0  0  0
 16 51  1  0  0  0  0
 22 52  1  0  0  0  0
 25 53  1  0  0  0  0
 25 54  1  0  0  0  0
 28 55  1  0  0  0  0
 32 56  1  0  0  0  0
 32 57  1  0  0  0  0
 33 58  1  0  0  0  0
 34 59  1  0  0  0  0
 34 60  1  0  0  0  0
 37 61  1  0  0  0  0
 37 62  1  0  0  0  0
 38 63  1  0  0  0  0
 38 64  1  0  0  0  0
 41 65  1  0  0  0  0
 45 66  1  0  0  0  0
 45 67  1  0  0  0  0
 46 68  1  0  0  0  0
 46 69  1  0  0  0  0
M  END
>  <energy>
253.8942732343028

$$$$
