REMARK  16 active torsions:
REMARK  status: ('A' for Active; 'I' for Inactive)
REMARK    1  A    between atoms: O_2  and  C_1 
REMARK    2  A    between atoms: C_3  and  O_2 
REMARK    3  A    between atoms: N_23  and  C_4 
REMARK    4  A    between atoms: N_7  and  C_6 
REMARK    5  A    between atoms: O_11  and  C_8 
REMARK    6  A    between atoms: O_10  and  C_9 
REMARK    7  A    between atoms: C_12  and  O_11 
REMARK    8  A    between atoms: O_14  and  C_13 
REMARK    9  A    between atoms: N_16  and  C_15 
REMARK   10  A    between atoms: O_18  and  C_17 
REMARK   11  A    between atoms: C_21  and  C_19 
REMARK   12  A    between atoms: O_22  and  C_21 
REMARK   13  A    between atoms: N_25  and  C_24 
REMARK   14  A    between atoms: O_28  and  C_27 
REMARK   15  A    between atoms: C_31  and  C_29 
REMARK   16  A    between atoms: N_32  and  C_31 
ROOT
ATOM      1  C   UNL d   1       1.475  -1.813  -1.958  0.00  0.00     0.189 C 
ATOM      2  C   UNL d   1       1.933  -0.466  -2.586  0.00  0.00     0.251 C 
ATOM      3  C   UNL d   1       1.703  -0.337  -4.124  0.00  0.00     0.076 C 
ATOM      4  C   UNL d   1       1.487  -1.623  -4.966  0.00  0.00     0.251 C 
ATOM      5  C   UNL d   1       1.387  -2.919  -4.124  0.00  0.00     0.189 C 
ATOM      6  C   UNL d   1       0.523  -2.571  -2.894  0.00  0.00     0.180 C 
ENDROOT
BRANCH   5   7
ATOM      7  O   UNL d   1       0.817  -3.976  -4.889  0.00  0.00    -0.348 OA
BRANCH   7   8
ATOM      8  C   UNL d   1       1.350  -5.313  -4.844  0.00  0.00     0.291 C 
ATOM      9  C   UNL d   1       2.312  -5.841  -3.743  0.00  0.00     0.208 C 
ATOM     10  C   UNL d   1       3.777  -5.428  -3.919  0.00  0.00     0.282 C 
ATOM     11  C   UNL d   1       4.229  -5.515  -5.374  0.00  0.00     0.184 C 
ATOM     12  C   UNL d   1       3.149  -5.044  -6.360  0.00  0.00     0.179 C 
ATOM     13  O   UNL d   1       1.916  -5.725  -6.106  0.00  0.00    -0.349 OA
BRANCH   9  14
ATOM     14  O   UNL d   1       1.886  -5.447  -2.435  0.00  0.00    -0.388 OA
ATOM     15  H   UNL d   1       1.824  -6.258  -1.905  0.00  0.00     0.210 HD
ENDBRANCH   9  14
BRANCH  10  16
ATOM     16  N   UNL d   1       4.637  -6.344  -3.143  0.00  0.00     0.088 N 
ATOM     17  H   UNL d   1       4.371  -6.288  -2.163  0.00  0.00     0.313 HD
ATOM     18  H   UNL d   1       5.603  -6.017  -3.193  0.00  0.00     0.313 HD
ENDBRANCH  10  16
BRANCH  11  19
ATOM     19  O   UNL d   1       5.396  -4.704  -5.526  0.00  0.00    -0.391 OA
ATOM     20  H   UNL d   1       5.122  -3.776  -5.454  0.00  0.00     0.210 HD
ENDBRANCH  11  19
BRANCH  12  21
ATOM     21  C   UNL d   1       3.553  -5.293  -7.818  0.00  0.00     0.198 C 
BRANCH  21  22
ATOM     22  O   UNL d   1       4.574  -4.372  -8.210  0.00  0.00    -0.398 OA
ATOM     23  H   UNL d   1       4.214  -3.474  -8.084  0.00  0.00     0.209 HD
ENDBRANCH  21  22
ENDBRANCH  12  21
ENDBRANCH   7   8
ENDBRANCH   5   7
BRANCH   4  24
ATOM     24  N   UNL d   1       2.510  -1.743  -6.000  0.00  0.00     0.085 N 
ATOM     25  H   UNL d   1       3.075  -0.909  -6.092  0.00  0.00     0.313 HD
ATOM     26  H   UNL d   1       2.082  -1.900  -6.912  0.00  0.00     0.313 HD
ENDBRANCH   4  24
BRANCH   6  27
ATOM     27  O   UNL d   1      -0.032  -3.730  -2.299  0.00  0.00    -0.390 OA
ATOM     28  H   UNL d   1      -0.108  -3.578  -1.343  0.00  0.00     0.210 HD
ENDBRANCH   6  27
BRANCH   1  29
ATOM     29  O   UNL d   1       1.022  -1.816  -0.605  0.00  0.00    -0.349 OA
BRANCH  29  30
ATOM     30  C   UNL d   1       0.152  -0.792  -0.132  0.00  0.00     0.293 C 
ATOM     31  C   UNL d   1       0.723  -0.312   1.298  0.00  0.00     0.275 C 
ATOM     32  C   UNL d   1      -0.236   0.680   2.112  0.00  0.00     0.074 C 
ATOM     33  C   UNL d   1      -1.535   0.715   1.302  0.00  0.00     0.151 C 
ATOM     34  C   UNL d   1      -2.236  -0.180   0.233  0.00  0.00     0.181 C 
ATOM     35  O   UNL d   1      -1.241  -1.244  -0.138  0.00  0.00    -0.349 OA
BRANCH  31  36
ATOM     36  N   UNL d   1       1.024  -1.462   2.158  0.00  0.00     0.087 N 
ATOM     37  H   UNL d   1       2.011  -1.453   2.410  0.00  0.00     0.313 HD
ATOM     38  H   UNL d   1       0.869  -2.330   1.652  0.00  0.00     0.313 HD
ENDBRANCH  31  36
BRANCH  33  39
ATOM     39  O   UNL d   1      -0.928   1.619   0.345  0.00  0.00    -0.393 OA
ATOM     40  H   UNL d   1      -1.271   2.500   0.573  0.00  0.00     0.210 HD
ENDBRANCH  33  39
BRANCH  34  41
ATOM     41  C   UNL d   1      -2.792   0.466  -1.070  0.00  0.00     0.301 C 
BRANCH  41  42
ATOM     42  N   UNL d   1      -2.043   0.077  -2.263  0.00  0.00     0.080 N 
ATOM     43  H   UNL d   1      -1.372   0.800  -2.525  0.00  0.00     0.312 HD
ATOM     44  H   UNL d   1      -2.669  -0.048  -3.056  0.00  0.00     0.312 HD
ENDBRANCH  41  42
ENDBRANCH  34  41
ENDBRANCH  29  30
ENDBRANCH   1  29
BRANCH   2  45
ATOM     45  N   UNL d   1       3.340  -0.204  -2.259  0.00  0.00     0.085 N 
ATOM     46  H   UNL d   1       3.954  -0.627  -2.956  0.00  0.00     0.313 HD
ATOM     47  H   UNL d   1       3.499   0.793  -2.296  0.00  0.00     0.313 HD
ENDBRANCH   2  45
TORSDOF 16
