@<TRIPOS>MOLECULE
4ERL_GLY_A_202
 10 9 0 0 0
SMALL
GASTEIGER

@<TRIPOS>ATOM
      1 N           1.0737   -0.0045   -0.1880 N.3     1  GLY1       -0.3209
      2 CA          2.5507   -0.0070   -0.0246 C.3     1  GLY1        0.0918
      3 C           3.0451   -1.4502    0.0328 C.2     1  GLY1        0.3185
      4 O           4.1142   -1.8086    0.4977 O.2     1  GLY1       -0.2496
      5 OXT         2.1488   -2.2970   -0.5397 O.3     1  GLY1       -0.4797
      6 H1          0.7759    0.9709   -0.2781 H       1  GLY1        0.1187
      7 H2          0.6625   -0.3065    0.7031 H       1  GLY1        0.1187
      8 HA1         2.8218    0.5136    0.8973 H       1  GLY1        0.0537
      9 HA2         3.0128    0.4804   -0.8876 H       1  GLY1        0.0537
     10 HXT         1.3828   -1.7359   -0.8187 H       1  GLY1        0.2951
@<TRIPOS>BOND
     1     1     2    1
     2     1     6    1
     3     1     7    1
     4     2     3    1
     5     2     8    1
     6     2     9    1
     7     3     4    2
     8     3     5    1
     9     5    10    1
