REMARK  3 active torsions:
REMARK  status: ('A' for Active; 'I' for Inactive)
REMARK    1  A    between atoms: N_1  and  CA_2 
REMARK    2  A    between atoms: CA_2  and  C_3 
REMARK    3  A    between atoms: C_3  and  OXT_5 
ROOT
ATOM      1  CA  GLY d   1       2.551  -0.007  -0.025  0.00  0.00     0.376 C 
ENDROOT
BRANCH   1   2
ATOM      2  N   GLY d   1       1.074  -0.004  -0.188  0.00  0.00     0.088 N 
ATOM      3  H1  GLY d   1       0.776   0.971  -0.278  0.00  0.00     0.313 HD
ATOM      4  H2  GLY d   1       0.662  -0.306   0.703  0.00  0.00     0.313 HD
ENDBRANCH   1   2
BRANCH   1   5
ATOM      5  C   GLY d   1       3.045  -1.450   0.033  0.00  0.00     0.168 C 
ATOM      6  O   GLY d   1       4.114  -1.809   0.498  0.00  0.00    -0.649 OA
BRANCH   5   7
ATOM      7  OXT GLY d   1       2.149  -2.297  -0.540  0.00  0.00    -0.775 OA
ATOM      8  HXT GLY d   1       1.383  -1.736  -0.819  0.00  0.00     0.167 HD
ENDBRANCH   5   7
ENDBRANCH   1   5
TORSDOF 3
