4ERL_GLY_A_202
 OpenBabel03221817313D

 10  9  0  0  0  0  0  0  0  0999 V2000
    1.0737   -0.0045   -0.1880 N   0  0  0  0  0  0  0  0  0  0  0  0
    2.5507   -0.0070   -0.0246 C   0  0  0  0  0  0  0  0  0  0  0  0
    3.0451   -1.4502    0.0328 C   0  0  0  0  0  0  0  0  0  0  0  0
    4.1142   -1.8086    0.4977 O   0  0  0  0  0  0  0  0  0  0  0  0
    2.1488   -2.2970   -0.5397 O   0  0  0  0  0  0  0  0  0  0  0  0
    0.7759    0.9709   -0.2781 H   0  0  0  0  0  0  0  0  0  0  0  0
    0.6625   -0.3065    0.7031 H   0  0  0  0  0  0  0  0  0  0  0  0
    2.8218    0.5136    0.8973 H   0  0  0  0  0  0  0  0  0  0  0  0
    3.0128    0.4804   -0.8876 H   0  0  0  0  0  0  0  0  0  0  0  0
    1.3828   -1.7359   -0.8187 H   0  0  0  0  0  0  0  0  0  0  0  0
  1  2  1  0  0  0  0
  1  6  1  0  0  0  0
  1  7  1  0  0  0  0
  2  3  1  0  0  0  0
  2  8  1  0  0  0  0
  2  9  1  0  0  0  0
  3  4  2  0  0  0  0
  3  5  1  0  0  0  0
  5 10  1  0  0  0  0
M  END
$$$$
