REMARK  8 active torsions:
REMARK  status: ('A' for Active; 'I' for Inactive)
REMARK    1  A    between atoms: CA_2  and  N_1 
REMARK    2  A    between atoms: CA_2  and  C_3 
REMARK    3  A    between atoms: CA_2  and  CB_6 
REMARK    4  A    between atoms: C_3  and  OXT_5 
REMARK    5  A    between atoms: CB_6  and  CG_7 
REMARK    6  A    between atoms: CG_7  and  CD_8 
REMARK    7  A    between atoms: CD_8  and  CE_9 
REMARK    8  A    between atoms: CE_9  and  NZ_10 
ROOT
ATOM      1  CA  LYS d   1       2.593   0.004  -0.063  0.00  0.00     0.314 C 
ENDROOT
BRANCH   1   2
ATOM      2  C   LYS d   1       2.942  -1.484  -0.258  0.00  0.00     0.173 C 
ATOM      3  O   LYS d   1       3.009  -2.315   0.635  0.00  0.00    -0.648 OA
BRANCH   2   4
ATOM      4  OXT LYS d   1       3.086  -1.816  -1.565  0.00  0.00    -0.775 OA
ATOM      5  HXT LYS d   1       2.973  -1.061  -2.174  0.00  0.00     0.167 HD
ENDBRANCH   2   4
ENDBRANCH   1   2
BRANCH   1   6
ATOM      6  CB  LYS d   1       3.090   0.540   1.288  0.00  0.00     0.046 C 
BRANCH   6   7
ATOM      7  CG  LYS d   1       4.620   0.535   1.379  0.00  0.00     0.004 C 
BRANCH   7   8
ATOM      8  CD  LYS d   1       5.111   1.118   2.706  0.00  0.00     0.030 C 
BRANCH   8   9
ATOM      9  CE  LYS d   1       6.637   1.078   2.787  0.00  0.00     0.267 C 
BRANCH   9  10
ATOM     10  NZ  LYS d   1       7.097   1.634   4.052  0.00  0.00     0.078 N 
ATOM     11  HZ1 LYS d   1       6.807   2.608   4.129  0.00  0.00     0.312 HD
ATOM     12  HZ2 LYS d   1       8.116   1.635   4.071  0.00  0.00     0.312 HD
ENDBRANCH   9  10
ENDBRANCH   8   9
ENDBRANCH   7   8
ENDBRANCH   6   7
ENDBRANCH   1   6
BRANCH   1  13
ATOM     13  N   LYS d   1       1.130   0.169  -0.168  0.00  0.00     0.093 N 
ATOM     14  H1  LYS d   1       0.695  -0.315   0.623  0.00  0.00     0.314 HD
ATOM     15  H2  LYS d   1       0.776  -0.312  -0.996  0.00  0.00     0.314 HD
ENDBRANCH   1  13
TORSDOF 8
