@<TRIPOS>MOLECULE
ligand.pdb
 24 23 0 0 0
SMALL
GASTEIGER

@<TRIPOS>ATOM
      1 N           1.1299    0.1685   -0.1684 N.3     1  LYS1       -0.3184
      2 CA          2.5929    0.0036   -0.0630 C.3     1  LYS1        0.1032
      3 HA          3.0684    0.5858   -0.8605 H       1  LYS1        0.0574
      4 C           2.9424   -1.4842   -0.2583 C.2     1  LYS1        0.3217
      5 O           3.0086   -2.3148    0.6352 O.2     1  LYS1       -0.2493
      6 OXT         3.0861   -1.8161   -1.5652 O.3     1  LYS1       -0.4795
      7 CB          3.0895    0.5400    1.2880 C.3     1  LYS1       -0.0273
      8 CG          4.6204    0.5353    1.3788 C.3     1  LYS1       -0.0500
      9 CD          5.1113    1.1179    2.7061 C.3     1  LYS1       -0.0406
     10 CE          6.6373    1.0781    2.7865 C.3     1  LYS1       -0.0069
     11 NZ          7.0969    1.6344    4.0519 N.3     1  LYS1       -0.3300
     12 H1          0.6951   -0.3154    0.6229 H       1  LYS1        0.1190
     13 H2          0.7760   -0.3121   -0.9955 H       1  LYS1        0.1190
     14 HXT         2.9732   -1.0613   -2.1743 H       1  LYS1        0.2951
     15 HB1         2.6739   -0.0527    2.1130 H       1  LYS1        0.0286
     16 HB2         2.7314    1.5695    1.4228 H       1  LYS1        0.0286
     17 HG1         5.0377    1.1184    0.5486 H       1  LYS1        0.0266
     18 HG2         4.9985   -0.4879    1.2755 H       1  LYS1        0.0266
     19 HD1         4.6804    0.5477    3.5388 H       1  LYS1        0.0277
     20 HD2         4.7580    2.1521    2.8047 H       1  LYS1        0.0277
     21 HE1         7.0744    1.6486    1.9590 H       1  LYS1        0.0422
     22 HE2         6.9907    0.0448    2.7006 H       1  LYS1        0.0422
     23 HZ1         6.8068    2.6079    4.1288 H       1  LYS1        0.1182
     24 HZ2         8.1162    1.6353    4.0708 H       1  LYS1        0.1182
@<TRIPOS>BOND
     1     1    12    1
     2     1    13    1
     3     2     4    1
     4     2     7    1
     5     2     3    1
     6     2     1    1
     7     4     5    2
     8     4     6    1
     9     6    14    1
    10     7     8    1
    11     7    15    1
    12     7    16    1
    13     8     9    1
    14     8    17    1
    15     8    18    1
    16     9    10    1
    17     9    19    1
    18     9    20    1
    19    10    11    1
    20    10    21    1
    21    10    22    1
    22    11    23    1
    23    11    24    1
