ligand.pdb
 OpenBabel03221817293D

 24 23  0  0  1  0  0  0  0  0999 V2000
    1.1299    0.1685   -0.1684 N   0  0  0  0  0  0  0  0  0  0  0  0
    2.5929    0.0036   -0.0630 C   0  0  2  0  0  0  0  0  0  0  0  0
    3.0684    0.5858   -0.8605 H   0  0  0  0  0  0  0  0  0  0  0  0
    2.9424   -1.4842   -0.2583 C   0  0  0  0  0  0  0  0  0  0  0  0
    3.0086   -2.3148    0.6352 O   0  0  0  0  0  0  0  0  0  0  0  0
    3.0861   -1.8161   -1.5652 O   0  0  0  0  0  0  0  0  0  0  0  0
    3.0895    0.5400    1.2880 C   0  0  0  0  0  0  0  0  0  0  0  0
    4.6204    0.5353    1.3788 C   0  0  0  0  0  0  0  0  0  0  0  0
    5.1113    1.1179    2.7061 C   0  0  0  0  0  0  0  0  0  0  0  0
    6.6373    1.0781    2.7865 C   0  0  0  0  0  0  0  0  0  0  0  0
    7.0969    1.6344    4.0519 N   0  0  0  0  0  0  0  0  0  0  0  0
    0.6951   -0.3154    0.6229 H   0  0  0  0  0  0  0  0  0  0  0  0
    0.7760   -0.3121   -0.9955 H   0  0  0  0  0  0  0  0  0  0  0  0
    2.9732   -1.0613   -2.1743 H   0  0  0  0  0  0  0  0  0  0  0  0
    2.6739   -0.0527    2.1130 H   0  0  0  0  0  0  0  0  0  0  0  0
    2.7314    1.5695    1.4228 H   0  0  0  0  0  0  0  0  0  0  0  0
    5.0377    1.1184    0.5486 H   0  0  0  0  0  0  0  0  0  0  0  0
    4.9985   -0.4879    1.2755 H   0  0  0  0  0  0  0  0  0  0  0  0
    4.6804    0.5477    3.5388 H   0  0  0  0  0  0  0  0  0  0  0  0
    4.7580    2.1521    2.8047 H   0  0  0  0  0  0  0  0  0  0  0  0
    7.0744    1.6486    1.9590 H   0  0  0  0  0  0  0  0  0  0  0  0
    6.9907    0.0448    2.7006 H   0  0  0  0  0  0  0  0  0  0  0  0
    6.8068    2.6079    4.1288 H   0  0  0  0  0  0  0  0  0  0  0  0
    8.1162    1.6353    4.0708 H   0  0  0  0  0  0  0  0  0  0  0  0
  1 12  1  0  0  0  0
  1 13  1  0  0  0  0
  2  4  1  0  0  0  0
  2  7  1  0  0  0  0
  2  3  1  6  0  0  0
  2  1  1  0  0  0  0
  4  5  2  0  0  0  0
  4  6  1  0  0  0  0
  6 14  1  0  0  0  0
  7  8  1  0  0  0  0
  7 15  1  0  0  0  0
  7 16  1  0  0  0  0
  8  9  1  0  0  0  0
  8 17  1  0  0  0  0
  8 18  1  0  0  0  0
  9 10  1  0  0  0  0
  9 19  1  0  0  0  0
  9 20  1  0  0  0  0
 10 11  1  0  0  0  0
 10 21  1  0  0  0  0
 10 22  1  0  0  0  0
 11 23  1  0  0  0  0
 11 24  1  0  0  0  0
M  END
$$$$
