@<TRIPOS>MOLECULE
2OE8_AM2_B_101
 78 81 0 0 0
SMALL
GASTEIGER

@<TRIPOS>ATOM
      1 C           1.2838    4.0781   -2.3315 C.3     1  UNL1        0.1752
      2 H           0.9137    4.9561   -2.8698 H       1  UNL1        0.0926
      3 C           0.5320    2.8341   -2.9139 C.3     1  UNL1        0.0590
      4 H           0.8190    2.7691   -3.9870 H       1  UNL1        0.0509
      5 C           1.0344    1.5794   -2.2073 C.3     1  UNL1       -0.0040
      6 C           2.5293    1.4638   -2.5104 C.3     1  UNL1        0.0920
      7 H           2.5940    1.2391   -3.5862 H       1  UNL1        0.0624
      8 C           3.2769    2.7542   -2.1590 C.3     1  UNL1        0.1153
      9 H           3.4050    2.8423   -1.0734 H       1  UNL1        0.0649
     10 C           4.6609    2.6243   -2.8152 C.3     1  UNL1        0.1038
     11 H           5.2823    3.4921   -2.5638 H       1  UNL1        0.0637
     12 C           5.3710    1.3169   -2.3585 C.3     1  UNL1        0.0877
     13 H           5.6116    1.4995   -1.3020 H       1  UNL1        0.0537
     14 C           4.4150    0.0591   -2.3165 C.3     1  UNL1        0.1803
     15 H           4.2901   -0.3640   -3.3209 H       1  UNL1        0.0928
     16 O           3.1273    0.3978   -1.7801 O.3     1  UNL1       -0.3436
     17 O           5.0438   -0.9301   -1.4740 O.3     1  UNL1       -0.3184
     18 C           4.2035   -2.0630   -1.2169 C.3     1  UNL1        0.1908
     19 H           3.2417   -1.7198   -0.8240 H       1  UNL1        0.0938
     20 C           4.8849   -2.9392   -0.1284 C.3     1  UNL1        0.1332
     21 H           4.9342   -2.3688    0.8080 H       1  UNL1        0.0671
     22 C           4.1095   -4.2512    0.0860 C.3     1  UNL1        0.1033
     23 H           4.6980   -4.9217    0.7233 H       1  UNL1        0.0637
     24 C           3.8163   -4.9647   -1.2635 C.3     1  UNL1        0.0626
     25 H           3.1220   -5.7942   -1.0858 H       1  UNL1        0.0511
     26 C           3.1681   -3.9674   -2.2584 C.3     1  UNL1        0.1023
     27 H           3.1376   -4.4307   -3.2529 H       1  UNL1        0.0636
     28 C           1.7073   -3.6052   -1.9020 C.3     1  UNL1        0.0720
     29 O           1.1379   -2.7215   -2.8680 O.3     1  UNL1       -0.3924
     30 O           4.0250   -2.8142   -2.4188 O.3     1  UNL1       -0.3415
     31 N           5.0326   -5.5475   -1.8801 N.3     1  UNL1       -0.3230
     32 O           2.8712   -4.0305    0.7674 O.3     1  UNL1       -0.3874
     33 O           6.2420   -3.2707   -0.4688 O.3     1  UNL1       -0.3841
     34 N           6.7110    1.0674   -2.9661 N.3     1  UNL1       -0.3099
     35 C           6.7584    1.1206   -4.4234 C.3     1  UNL1       -0.0153
     36 O           4.4409    2.6841   -4.2393 O.3     1  UNL1       -0.3874
     37 O           2.6721    3.9577   -2.6537 O.3     1  UNL1       -0.3413
     38 N          -0.9362    2.9115   -2.9029 N.3     1  UNL1       -0.3231
     39 O           1.0432    4.2516   -0.9265 O.3     1  UNL1       -0.3423
     40 C           1.7075    5.3823   -0.3216 C.3     1  UNL1        0.1051
     41 H           2.7828    5.2676   -0.5122 H       1  UNL1        0.0639
     42 C           1.2534    6.7673   -0.8425 C.3     1  UNL1        0.1101
     43 H           1.3515    6.7981   -1.9306 H       1  UNL1        0.0646
     44 C          -0.2161    7.0709   -0.4771 C.3     1  UNL1        0.0986
     45 H          -0.4627    8.0803   -0.8306 H       1  UNL1        0.0635
     46 C          -0.4907    6.9971    1.0458 C.3     1  UNL1        0.0351
     47 H          -1.5787    6.9422    1.1911 H       1  UNL1        0.0485
     48 C           0.0900    5.7106    1.6670 C.3     1  UNL1       -0.0175
     49 C           1.5178    5.3284    1.2287 C.3     1  UNL1        0.0355
     50 H           1.6948    4.2969    1.5556 H       1  UNL1        0.0485
     51 N           2.5161    6.1861    1.9179 N.3     1  UNL1       -0.3250
     52 N          -0.0495    8.2003    1.7772 N.3     1  UNL1       -0.3250
     53 O          -1.1366    6.1825   -1.1164 O.3     1  UNL1       -0.3876
     54 O           2.1085    7.8129   -0.3446 O.3     1  UNL1       -0.3866
     55 H           0.5258    0.6802   -2.5774 H       1  UNL1        0.0308
     56 H           0.8551    1.6107   -1.1265 H       1  UNL1        0.0308
     57 H           1.0910   -4.5124   -1.8652 H       1  UNL1        0.0583
     58 H           1.6067   -3.1003   -0.9434 H       1  UNL1        0.0583
     59 H           1.1935   -3.1588   -3.7338 H       1  UNL1        0.2095
     60 H           5.7379   -5.7197   -1.1593 H       1  UNL1        0.1186
     61 H           5.4573   -4.8573   -2.5025 H       1  UNL1        0.1186
     62 H           3.0134   -3.3760    1.4761 H       1  UNL1        0.2100
     63 H           6.3448   -3.0474   -1.4137 H       1  UNL1        0.2101
     64 H           7.0200    0.1428   -2.6639 H       1  UNL1        0.1221
     65 H           6.6356    2.1389   -4.8043 H       1  UNL1        0.0388
     66 H           6.0280    0.4532   -4.8901 H       1  UNL1        0.0388
     67 H           7.7527    0.8070   -4.7591 H       1  UNL1        0.0388
     68 H           4.0179    3.5561   -4.3945 H       1  UNL1        0.2100
     69 H          -1.2878    2.6476   -1.9888 H       1  UNL1        0.1186
     70 H          -1.3030    2.2052   -3.5489 H       1  UNL1        0.1186
     71 H          -0.5757    4.8778    1.4113 H       1  UNL1        0.0297
     72 H           0.0463    5.7827    2.7643 H       1  UNL1        0.0297
     73 H           2.9047    5.6404    2.6946 H       1  UNL1        0.1185
     74 H           2.0185    6.9367    2.4127 H       1  UNL1        0.1185
     75 H          -0.5904    8.9928    1.4233 H       1  UNL1        0.1185
     76 H           0.9102    8.4305    1.5058 H       1  UNL1        0.1185
     77 H          -0.8026    5.9456   -1.9968 H       1  UNL1        0.2100
     78 H           2.6510    7.4229    0.3781 H       1  UNL1        0.2100
@<TRIPOS>BOND
     1     1     2    1
     2     1     3    1
     3     1    37    1
     4     1    39    1
     5     3     5    1
     6     3    38    1
     7     3     4    1
     8     5     6    1
     9     5    55    1
    10     5    56    1
    11     6     7    1
    12     6     8    1
    13     6    16    1
    14     8     9    1
    15     8    10    1
    16     8    37    1
    17    10    11    1
    18    10    12    1
    19    10    36    1
    20    12    13    1
    21    12    14    1
    22    12    34    1
    23    14    16    1
    24    14    17    1
    25    14    15    1
    26    18    20    1
    27    18    30    1
    28    18    19    1
    29    18    17    1
    30    20    22    1
    31    20    33    1
    32    20    21    1
    33    22    24    1
    34    22    32    1
    35    22    23    1
    36    24    25    1
    37    24    26    1
    38    24    31    1
    39    26    30    1
    40    26    28    1
    41    26    27    1
    42    28    29    1
    43    28    57    1
    44    28    58    1
    45    29    59    1
    46    31    60    1
    47    31    61    1
    48    32    62    1
    49    33    63    1
    50    34    35    1
    51    34    64    1
    52    35    65    1
    53    35    66    1
    54    35    67    1
    55    36    68    1
    56    38    69    1
    57    38    70    1
    58    39    40    1
    59    40    41    1
    60    40    42    1
    61    42    44    1
    62    42    54    1
    63    42    43    1
    64    44    46    1
    65    44    53    1
    66    44    45    1
    67    46    47    1
    68    46    48    1
    69    46    52    1
    70    48    49    1
    71    48    71    1
    72    48    72    1
    73    49    50    1
    74    49    40    1
    75    49    51    1
    76    51    73    1
    77    51    74    1
    78    52    75    1
    79    52    76    1
    80    53    77    1
    81    54    78    1
