@<TRIPOS>MOLECULE
2BEE_JS4_A_50
 106 109 0 0 0
SMALL
GASTEIGER

@<TRIPOS>ATOM
      1 C          -3.0976   -6.3435    3.0902 C.3     1  UNL1        0.1776
      2 H          -3.2007   -7.1120    2.3119 H       1  UNL1        0.0927
      3 O          -1.8793   -5.6356    2.8267 O.3     1  UNL1       -0.3422
      4 C          -0.6548   -6.3189    3.1665 C.3     1  UNL1        0.1055
      5 H          -0.9250   -7.2610    3.6785 H       1  UNL1        0.0639
      6 C           0.1970   -5.3769    4.1266 C.3     1  UNL1        0.0355
      7 H          -0.4094   -4.4762    4.3228 H       1  UNL1        0.0485
      8 C           1.6140   -4.8681    3.6203 C.3     1  UNL1       -0.0175
      9 C           2.4426   -5.5790    2.4548 C.3     1  UNL1        0.0351
     10 H           2.5714   -4.8004    1.6914 H       1  UNL1        0.0485
     11 N           3.7961   -5.9290    2.8974 N.3     1  UNL1       -0.3250
     12 C           1.7738   -6.7859    1.6822 C.3     1  UNL1        0.0990
     13 H           2.2071   -7.7532    2.0187 H       1  UNL1        0.0636
     14 C           0.2405   -6.6716    1.9350 C.3     1  UNL1        0.1166
     15 H           0.7532   -7.0299    2.8520 H       1  UNL1        0.0650
     16 O           0.1190   -5.3559    1.3274 O.3     1  UNL1       -0.3402
     17 C          -0.4046   -5.3468   -0.0083 C.3     1  UNL1        0.1887
     18 H          -0.7680   -6.3419   -0.2908 H       1  UNL1        0.0938
     19 C          -1.4727   -4.2669   -0.0793 C.3     1  UNL1        0.1380
     20 H          -2.0707   -4.2263    0.8369 H       1  UNL1        0.0674
     21 O          -2.4160   -4.3616   -1.1406 O.3     1  UNL1       -0.3676
     22 C          -2.1134   -5.0158   -2.3646 C.3     1  UNL1        0.0608
     23 C          -2.6932   -6.4291   -2.4019 C.3     1  UNL1        0.0194
     24 N          -4.1591   -6.4587   -2.4788 N.3     1  UNL1       -0.3138
     25 C          -4.7304   -6.7447   -1.1610 C.3     1  UNL1       -0.0029
     26 C          -6.2503   -6.9155   -1.2200 C.3     1  UNL1       -0.0281
     27 C          -6.7330   -8.0284   -0.2824 C.3     1  UNL1       -0.0058
     28 N          -6.9041   -7.5604    1.0918 N.3     1  UNL1       -0.3299
     29 C          -0.5130   -3.0675   -0.0699 C.3     1  UNL1        0.1208
     30 H          -0.0313   -3.0886    0.9195 H       1  UNL1        0.0651
     31 C           0.5353   -3.4840   -1.0840 C.3     1  UNL1        0.1135
     32 H           0.2005   -3.2666   -2.1026 H       1  UNL1        0.0647
     33 O           0.6204   -4.9139   -0.9333 O.3     1  UNL1       -0.3405
     34 C           1.9090   -2.8590   -0.8905 C.3     1  UNL1        0.0730
     35 O           1.9383   -1.5888   -1.5443 O.3     1  UNL1       -0.3924
     36 O          -0.9454   -1.7363   -0.1618 O.3     1  UNL1       -0.3410
     37 C          -2.0174   -1.4071   -1.0193 C.3     1  UNL1        0.1776
     38 H          -2.3706   -2.2864   -1.5470 H       1  UNL1        0.0927
     39 C          -1.5411   -0.3844   -2.0668 C.3     1  UNL1        0.0853
     40 H          -0.6636   -0.7947   -2.5797 H       1  UNL1        0.0535
     41 N          -1.0929    0.8554   -1.4211 N.3     1  UNL1       -0.3211
     42 C          -2.6981   -0.0904   -3.0531 C.3     1  UNL1        0.1033
     43 H          -2.7959    0.9680   -3.3321 H       1  UNL1        0.0637
     44 O          -2.3751   -0.7813   -4.2683 O.3     1  UNL1       -0.3874
     45 C          -4.0426   -0.6438   -2.5376 C.3     1  UNL1        0.1100
     46 H          -4.0668   -1.7311   -2.7022 H       1  UNL1        0.0646
     47 O          -5.1192   -0.0711   -3.2744 O.3     1  UNL1       -0.3866
     48 C          -4.2314   -0.4184   -1.0291 C.3     1  UNL1        0.1022
     49 H          -5.0795   -1.0401   -0.7237 H       1  UNL1        0.0636
     50 O          -3.0965   -0.8565   -0.2613 O.3     1  UNL1       -0.3425
     51 C          -4.5802    1.0326   -0.6704 C.3     1  UNL1        0.0222
     52 N          -4.5891    1.2752    0.7673 N.3     1  UNL1       -0.3276
     53 O           2.0478   -6.7664    0.2885 O.3     1  UNL1       -0.3876
     54 N           0.3740   -6.0489    5.4229 N.3     1  UNL1       -0.3250
     55 C          -4.3225   -5.3850    3.0195 C.3     1  UNL1        0.0853
     56 H          -5.2328   -5.9933    3.1499 H       1  UNL1        0.0535
     57 N          -4.4151   -4.7099    1.7296 N.3     1  UNL1       -0.3211
     58 C          -4.2853   -4.3797    4.1838 C.3     1  UNL1        0.1033
     59 H          -3.4029   -3.7264    4.1065 H       1  UNL1        0.0637
     60 O          -5.4648   -3.5716    4.1662 O.3     1  UNL1       -0.3874
     61 C          -4.2447   -5.1538    5.5053 C.3     1  UNL1        0.1109
     62 H          -5.1792   -5.7027    5.6745 H       1  UNL1        0.0646
     63 O          -4.0913   -4.2186    6.5701 O.3     1  UNL1       -0.3865
     64 C          -3.0568   -6.1143    5.4942 C.3     1  UNL1        0.1129
     65 H          -2.1492   -5.5127    5.4226 H       1  UNL1        0.0647
     66 O          -3.1534   -7.0048    4.3681 O.3     1  UNL1       -0.3415
     67 C          -2.9689   -6.9757    6.7598 C.3     1  UNL1        0.0730
     68 O          -4.0863   -7.8550    6.8507 O.3     1  UNL1       -0.3924
     69 H           1.4328   -3.8518    3.2397 H       1  UNL1        0.0297
     70 H           2.2539   -4.6728    4.4971 H       1  UNL1        0.0297
     71 H           3.8309   -6.0309    3.9110 H       1  UNL1        0.1185
     72 H           4.4486   -5.1794    2.6720 H       1  UNL1        0.1185
     73 H          -2.5601   -4.4202   -3.1666 H       1  UNL1        0.0573
     74 H          -1.0486   -5.0483   -2.5842 H       1  UNL1        0.0573
     75 H          -2.3336   -7.0096   -1.5475 H       1  UNL1        0.0446
     76 H          -2.3159   -6.9398   -3.2942 H       1  UNL1        0.0446
     77 H          -4.5002   -5.5583   -2.8116 H       1  UNL1        0.1220
     78 H          -4.2529   -7.6326   -0.7285 H       1  UNL1        0.0424
     79 H          -4.4868   -5.9051   -0.5133 H       1  UNL1        0.0424
     80 H          -6.7316   -5.9637   -0.9605 H       1  UNL1        0.0290
     81 H          -6.5817   -7.1565   -2.2381 H       1  UNL1        0.0290
     82 H          -7.6908   -8.4184   -0.6426 H       1  UNL1        0.0422
     83 H          -6.0284   -8.8717   -0.2852 H       1  UNL1        0.0422
     84 H          -7.3684   -6.6484    1.0958 H       1  UNL1        0.1182
     85 H          -5.9930   -7.4246    1.5197 H       1  UNL1        0.1182
     86 H           2.1543   -2.7169    0.1683 H       1  UNL1        0.0584
     87 H           2.6895   -3.4971   -1.3276 H       1  UNL1        0.0584
     88 H           2.0698   -1.7486   -2.4909 H       1  UNL1        0.2095
     89 H          -1.6163    0.9967   -0.5604 H       1  UNL1        0.1187
     90 H          -0.1213    0.7654   -1.1226 H       1  UNL1        0.1187
     91 H          -2.7739   -0.3023   -5.0111 H       1  UNL1        0.2100
     92 H          -5.3496   -0.6774   -4.0061 H       1  UNL1        0.2100
     93 H          -5.5847    1.2750   -1.0246 H       1  UNL1        0.0448
     94 H          -3.8996    1.7320   -1.1639 H       1  UNL1        0.0448
     95 H          -4.4838    2.2786    0.9253 H       1  UNL1        0.1183
     96 H          -3.7780    0.8245    1.1827 H       1  UNL1        0.1183
     97 H           1.4590   -7.4445   -0.1141 H       1  UNL1        0.2100
     98 H           1.2358   -6.6047    5.4172 H       1  UNL1        0.1185
     99 H           0.4859   -5.3524    6.1482 H       1  UNL1        0.1185
    100 H          -5.2227   -5.0572    1.2168 H       1  UNL1        0.1187
    101 H          -4.5738   -3.7101    1.8473 H       1  UNL1        0.1187
    102 H          -5.2002   -2.6475    4.1167 H       1  UNL1        0.2100
    103 H          -4.8477   -3.6067    6.5250 H       1  UNL1        0.2100
    104 H          -2.0518   -7.5780    6.7518 H       1  UNL1        0.0584
    105 H          -2.9476   -6.3553    7.6632 H       1  UNL1        0.0584
    106 H          -3.7920   -8.6692    7.2937 H       1  UNL1        0.2095
@<TRIPOS>BOND
     1     1     2    1
     2     3     1    1
     3     4     3    1
     4     4     5    1
     5     6     4    1
     6     6     7    1
     7     8     6    1
     8     9     8    1
     9     9    10    1
    10    11     9    1
    11    12     9    1
    12    12    13    1
    13    14    12    1
    14    14    15    1
    15    14     4    1
    16    16    14    1
    17    17    16    1
    18    17    18    1
    19    19    17    1
    20    19    20    1
    21    21    19    1
    22    22    21    1
    23    23    22    1
    24    24    23    1
    25    25    24    1
    26    26    25    1
    27    27    26    1
    28    28    27    1
    29    29    19    1
    30    29    30    1
    31    31    29    1
    32    31    32    1
    33    33    31    1
    34    33    17    1
    35    34    31    1
    36    35    34    1
    37    36    29    1
    38    37    36    1
    39    37    38    1
    40    39    37    1
    41    39    40    1
    42    41    39    1
    43    42    39    1
    44    42    43    1
    45    44    42    1
    46    45    42    1
    47    45    46    1
    48    47    45    1
    49    48    45    1
    50    48    49    1
    51    50    48    1
    52    50    37    1
    53    51    48    1
    54    52    51    1
    55    53    12    1
    56    54     6    1
    57    55     1    1
    58    55    56    1
    59    57    55    1
    60    58    55    1
    61    58    59    1
    62    60    58    1
    63    61    58    1
    64    61    62    1
    65    63    61    1
    66    64    61    1
    67    64    65    1
    68    66    64    1
    69    66     1    1
    70    67    64    1
    71    68    67    1
    72     8    69    1
    73     8    70    1
    74    11    71    1
    75    11    72    1
    76    22    73    1
    77    22    74    1
    78    23    75    1
    79    23    76    1
    80    24    77    1
    81    25    78    1
    82    25    79    1
    83    26    80    1
    84    26    81    1
    85    27    82    1
    86    27    83    1
    87    28    84    1
    88    28    85    1
    89    34    86    1
    90    34    87    1
    91    35    88    1
    92    41    89    1
    93    41    90    1
    94    44    91    1
    95    47    92    1
    96    51    93    1
    97    51    94    1
    98    52    95    1
    99    52    96    1
   100    53    97    1
   101    54    98    1
   102    54    99    1
   103    57   100    1
   104    57   101    1
   105    60   102    1
   106    63   103    1
   107    67   104    1
   108    67   105    1
   109    68   106    1
