REMARK  29 active torsions:
REMARK  status: ('A' for Active; 'I' for Inactive)
REMARK    1  A    between atoms: O_2  and  C_1 
REMARK    2  A    between atoms: C_3  and  O_2 
REMARK    3  A    between atoms: N_39  and  C_4 
REMARK    4  A    between atoms: N_7  and  C_6 
REMARK    5  A    between atoms: O_38  and  C_8 
REMARK    6  A    between atoms: O_10  and  C_9 
REMARK    7  A    between atoms: C_11  and  O_10 
REMARK    8  A    between atoms: O_13  and  C_12 
REMARK    9  A    between atoms: C_14  and  O_13 
REMARK   10  A    between atoms: C_15  and  C_14 
REMARK   11  A    between atoms: N_16  and  C_15 
REMARK   12  A    between atoms: C_17  and  N_16 
REMARK   13  A    between atoms: C_18  and  C_17 
REMARK   14  A    between atoms: C_19  and  C_18 
REMARK   15  A    between atoms: N_20  and  C_19 
REMARK   16  A    between atoms: O_26  and  C_21 
REMARK   17  A    between atoms: C_24  and  C_22 
REMARK   18  A    between atoms: O_25  and  C_24 
REMARK   19  A    between atoms: C_27  and  O_26 
REMARK   20  A    between atoms: N_29  and  C_28 
REMARK   21  A    between atoms: O_31  and  C_30 
REMARK   22  A    between atoms: O_33  and  C_32 
REMARK   23  A    between atoms: C_36  and  C_34 
REMARK   24  A    between atoms: N_37  and  C_36 
REMARK   25  A    between atoms: N_41  and  C_40 
REMARK   26  A    between atoms: O_43  and  C_42 
REMARK   27  A    between atoms: O_45  and  C_44 
REMARK   28  A    between atoms: C_48  and  C_46 
REMARK   29  A    between atoms: O_49  and  C_48 
ROOT
ATOM      1  C   UNL d   1      -0.405  -5.347  -0.008  0.00  0.00     0.292 C 
ATOM      2  C   UNL d   1      -1.473  -4.267  -0.079  0.00  0.00     0.208 C 
ATOM      3  C   UNL d   1      -0.513  -3.067  -0.070  0.00  0.00     0.189 C 
ATOM      4  C   UNL d   1       0.535  -3.484  -1.084  0.00  0.00     0.180 C 
ATOM      5  O   UNL d   1       0.620  -4.914  -0.933  0.00  0.00    -0.348 OA
ENDROOT
BRANCH   1   6
ATOM      6  O   UNL d   1       0.119  -5.356   1.327  0.00  0.00    -0.348 OA
BRANCH   6   7
ATOM      7  C   UNL d   1       0.240  -6.672   1.935  0.00  0.00     0.186 C 
ATOM      8  C   UNL d   1       1.774  -6.786   1.682  0.00  0.00     0.182 C 
ATOM      9  C   UNL d   1       2.443  -5.579   2.455  0.00  0.00     0.251 C 
ATOM     10  C   UNL d   1       1.614  -4.868   3.620  0.00  0.00     0.076 C 
ATOM     11  C   UNL d   1       0.197  -5.377   4.127  0.00  0.00     0.251 C 
ATOM     12  C   UNL d   1      -0.655  -6.319   3.167  0.00  0.00     0.189 C 
BRANCH   8  13
ATOM     13  O   UNL d   1       2.048  -6.766   0.288  0.00  0.00    -0.391 OA
ATOM     14  H   UNL d   1       1.459  -7.444  -0.114  0.00  0.00     0.210 HD
ENDBRANCH   8  13
BRANCH   9  15
ATOM     15  N   UNL d   1       3.796  -5.929   2.897  0.00  0.00     0.085 N 
ATOM     16  H   UNL d   1       3.831  -6.031   3.911  0.00  0.00     0.313 HD
ATOM     17  H   UNL d   1       4.449  -5.179   2.672  0.00  0.00     0.313 HD
ENDBRANCH   9  15
BRANCH  11  18
ATOM     18  N   UNL d   1       0.374  -6.049   5.423  0.00  0.00     0.085 N 
ATOM     19  H   UNL d   1       1.236  -6.605   5.417  0.00  0.00     0.313 HD
ATOM     20  H   UNL d   1       0.486  -5.352   6.148  0.00  0.00     0.313 HD
ENDBRANCH  11  18
BRANCH  12  21
ATOM     21  O   UNL d   1      -1.879  -5.636   2.827  0.00  0.00    -0.349 OA
BRANCH  21  22
ATOM     22  C   UNL d   1      -3.098  -6.343   3.090  0.00  0.00     0.296 C 
ATOM     23  C   UNL d   1      -4.322  -5.385   3.019  0.00  0.00     0.303 C 
ATOM     24  C   UNL d   1      -4.285  -4.380   4.184  0.00  0.00     0.187 C 
ATOM     25  C   UNL d   1      -4.245  -5.154   5.505  0.00  0.00     0.180 C 
ATOM     26  C   UNL d   1      -3.057  -6.114   5.494  0.00  0.00     0.179 C 
ATOM     27  O   UNL d   1      -3.153  -7.005   4.368  0.00  0.00    -0.349 OA
BRANCH  23  28
ATOM     28  N   UNL d   1      -4.415  -4.710   1.730  0.00  0.00     0.090 N 
ATOM     29  H   UNL d   1      -5.223  -5.057   1.217  0.00  0.00     0.313 HD
ATOM     30  H   UNL d   1      -4.574  -3.710   1.847  0.00  0.00     0.313 HD
ENDBRANCH  23  28
BRANCH  24  31
ATOM     31  O   UNL d   1      -5.465  -3.572   4.166  0.00  0.00    -0.391 OA
ATOM     32  H   UNL d   1      -5.200  -2.647   4.117  0.00  0.00     0.210 HD
ENDBRANCH  24  31
BRANCH  25  33
ATOM     33  O   UNL d   1      -4.091  -4.219   6.570  0.00  0.00    -0.390 OA
ATOM     34  H   UNL d   1      -4.848  -3.607   6.525  0.00  0.00     0.210 HD
ENDBRANCH  25  33
BRANCH  26  35
ATOM     35  C   UNL d   1      -2.969  -6.976   6.760  0.00  0.00     0.198 C 
BRANCH  35  36
ATOM     36  O   UNL d   1      -4.086  -7.855   6.851  0.00  0.00    -0.398 OA
ATOM     37  H   UNL d   1      -3.792  -8.669   7.294  0.00  0.00     0.209 HD
ENDBRANCH  35  36
ENDBRANCH  26  35
ENDBRANCH  21  22
ENDBRANCH  12  21
ENDBRANCH   6   7
ENDBRANCH   1   6
BRANCH   2  38
ATOM     38  O   UNL d   1      -2.416  -4.362  -1.141  0.00  0.00    -0.377 OA
BRANCH  38  39
ATOM     39  C   UNL d   1      -2.113  -5.016  -2.365  0.00  0.00     0.198 C 
BRANCH  39  40
ATOM     40  C   UNL d   1      -2.693  -6.429  -2.402  0.00  0.00     0.295 C 
BRANCH  40  41
ATOM     41  N   UNL d   1      -4.159  -6.459  -2.479  0.00  0.00     0.085 N 
ATOM     42  H   UNL d   1      -4.500  -5.558  -2.812  0.00  0.00     0.315 HD
BRANCH  41  43
ATOM     43  C   UNL d   1      -4.730  -6.745  -1.161  0.00  0.00     0.271 C 
BRANCH  43  44
ATOM     44  C   UNL d   1      -6.250  -6.915  -1.220  0.00  0.00     0.059 C 
BRANCH  44  45
ATOM     45  C   UNL d   1      -6.733  -8.028  -0.282  0.00  0.00     0.268 C 
BRANCH  45  46
ATOM     46  N   UNL d   1      -6.904  -7.560   1.092  0.00  0.00     0.078 N 
ATOM     47  H   UNL d   1      -7.368  -6.648   1.096  0.00  0.00     0.312 HD
ATOM     48  H   UNL d   1      -5.993  -7.425   1.520  0.00  0.00     0.312 HD
ENDBRANCH  45  46
ENDBRANCH  44  45
ENDBRANCH  43  44
ENDBRANCH  41  43
ENDBRANCH  40  41
ENDBRANCH  39  40
ENDBRANCH  38  39
ENDBRANCH   2  38
BRANCH   3  49
ATOM     49  O   UNL d   1      -0.945  -1.736  -0.162  0.00  0.00    -0.348 OA
BRANCH  49  50
ATOM     50  C   UNL d   1      -2.017  -1.407  -1.019  0.00  0.00     0.296 C 
ATOM     51  C   UNL d   1      -1.541  -0.384  -2.067  0.00  0.00     0.303 C 
ATOM     52  C   UNL d   1      -2.698  -0.090  -3.053  0.00  0.00     0.187 C 
ATOM     53  C   UNL d   1      -4.043  -0.644  -2.538  0.00  0.00     0.179 C 
ATOM     54  C   UNL d   1      -4.231  -0.418  -1.029  0.00  0.00     0.183 C 
ATOM     55  O   UNL d   1      -3.096  -0.857  -0.261  0.00  0.00    -0.349 OA
BRANCH  51  56
ATOM     56  N   UNL d   1      -1.093   0.855  -1.421  0.00  0.00     0.090 N 
ATOM     57  H   UNL d   1      -1.616   0.997  -0.560  0.00  0.00     0.313 HD
ATOM     58  H   UNL d   1      -0.121   0.765  -1.123  0.00  0.00     0.313 HD
ENDBRANCH  51  56
BRANCH  52  59
ATOM     59  O   UNL d   1      -2.375  -0.781  -4.268  0.00  0.00    -0.391 OA
ATOM     60  H   UNL d   1      -2.774  -0.302  -5.011  0.00  0.00     0.210 HD
ENDBRANCH  52  59
BRANCH  53  61
ATOM     61  O   UNL d   1      -5.119  -0.071  -3.274  0.00  0.00    -0.390 OA
ATOM     62  H   UNL d   1      -5.350  -0.677  -4.006  0.00  0.00     0.210 HD
ENDBRANCH  53  61
BRANCH  54  63
ATOM     63  C   UNL d   1      -4.580   1.033  -0.670  0.00  0.00     0.301 C 
BRANCH  63  64
ATOM     64  N   UNL d   1      -4.589   1.275   0.767  0.00  0.00     0.080 N 
ATOM     65  H   UNL d   1      -4.484   2.279   0.925  0.00  0.00     0.312 HD
ATOM     66  H   UNL d   1      -3.778   0.825   1.183  0.00  0.00     0.312 HD
ENDBRANCH  63  64
ENDBRANCH  54  63
ENDBRANCH  49  50
ENDBRANCH   3  49
BRANCH   4  67
ATOM     67  C   UNL d   1       1.909  -2.859  -0.890  0.00  0.00     0.198 C 
BRANCH  67  68
ATOM     68  O   UNL d   1       1.938  -1.589  -1.544  0.00  0.00    -0.398 OA
ATOM     69  H   UNL d   1       2.070  -1.749  -2.491  0.00  0.00     0.209 HD
ENDBRANCH  67  68
ENDBRANCH   4  67
TORSDOF 29
