@<TRIPOS>MOLECULE
4ERL_GLY_A_202
 10 9 0 0 0
SMALL
GASTEIGER
****
Coordinates from PDB:4ERL:A:202 Model:1 without hydrogens
@<TRIPOS>ATOM
      1 N         -15.1390   33.4000 1280.5410 N.3     1  GLY1       -0.3209
      2 CA        -16.1600   32.9020 1281.4250 C.3     1  GLY1        0.0918
      3 C         -17.0600   33.7750 1282.2469 C.2     1  GLY1        0.3185
      4 O         -16.5930   34.4010 1283.4010 O.2     1  GLY1       -0.2496
      5 OXT       -18.4180   33.6720 1282.0160 O.3     1  GLY1       -0.4797
      6 H1        -14.6627   32.6157 1280.0956 H       1  GLY1        0.1187
      7 H2        -14.4648   33.9483 1281.0750 H       1  GLY1        0.1187
      8 HA1       -15.6543   32.2687 1282.1236 H       1  GLY1        0.0537
      9 HA2       -16.8576   32.4986 1280.7211 H       1  GLY1        0.0537
     10 HXT       -18.7306   33.2508 1281.2396 H       1  GLY1        0.2951
@<TRIPOS>BOND
     1     1     2    1
     2     1     6    1
     3     1     7    1
     4     2     3    1
     5     2     8    1
     6     2     9    1
     7     3     4    2
     8     3     5    1
     9     5    10    1
