4ERL_GLY_A_202
 OpenBabel10091713583D
Coordinates from PDB:4ERL:A:202 Model:1 without hydrogens
 10  9  0  0  0  0  0  0  0  0999 V2000
  -15.1390   33.4000 1280.5410 N   0  0  0  0  0  0  0  0  0  0  0  0
  -16.1600   32.9020 1281.4250 C   0  0  0  0  0  0  0  0  0  0  0  0
  -17.0600   33.7750 1282.2469 C   0  0  0  0  0  0  0  0  0  0  0  0
  -16.5930   34.4010 1283.4010 O   0  0  0  0  0  0  0  0  0  0  0  0
  -18.4180   33.6720 1282.0160 O   0  0  0  0  0  0  0  0  0  0  0  0
  -14.6627   32.6157 1280.0956 H   0  0  0  0  0  0  0  0  0  0  0  0
  -14.4648   33.9483 1281.0750 H   0  0  0  0  0  0  0  0  0  0  0  0
  -15.6543   32.2687 1282.1236 H   0  0  0  0  0  0  0  0  0  0  0  0
  -16.8576   32.4986 1280.7211 H   0  0  0  0  0  0  0  0  0  0  0  0
  -18.7306   33.2508 1281.2396 H   0  0  0  0  0  0  0  0  0  0  0  0
  1  2  1  0  0  0  0
  1  6  1  0  0  0  0
  1  7  1  0  0  0  0
  2  3  1  0  0  0  0
  2  8  1  0  0  0  0
  2  9  1  0  0  0  0
  3  4  2  0  0  0  0
  3  5  1  0  0  0  0
  5 10  1  0  0  0  0
M  END
$$$$
