@<TRIPOS>MOLECULE
3DIR_IEL_A_175
 13 12 0 0 0
SMALL
GASTEIGER
****
Coordinates from PDB:3DIR:A:175 Model:1 without hydrogens
@<TRIPOS>ATOM
      1 O1         34.6010   17.0580   21.9740 O.co2   1  <1>        -0.2441
      2 C1         33.4190   17.2740   22.3200 C.2     1  <1>         0.3819
      3 O2         33.1580   17.8440   23.4000 O.co2   1  <1>        -0.2441
      4 C2         32.3120   16.8650   21.3900 C.3     1  <1>         0.1943
      5 N1         32.8770   16.0120   20.3590 N.3     1  <1>        -0.1208
      6 C3         31.1840   16.1290   22.1080 C.3     1  <1>         0.0307
      7 C4         30.3410   15.3540   21.0970 C.3     1  <1>         0.0065
      8 C5         28.8770   15.2370   21.5060 C.3     1  <1>         0.0554
      9 C6         27.9880   15.7740   20.3920 C.3     1  <1>         0.2510
     10 N2         27.6140   14.6300   19.5640 N.pl3   1  <1>        -0.0316
     11 C7         28.2280   14.1380   18.4930 C.2     1  <1>         0.3901
     12 N3         29.3470   14.6490   18.0050 N.2     1  <1>         0.1917
     13 C8         27.6370   12.9480   17.8050 C.3     1  <1>         0.1388
@<TRIPOS>BOND
     1     1     2   ar
     2     2     3   ar
     3     4     2    1
     4     4     5    1
     5     4     6    1
     6     7     6    1
     7     7     8    1
     8     9     8    1
     9    10     9    1
    10    11    10    1
    11    12    11    2
    12    13    11    1
