3DIR_IEL_A_175
 OpenBabel10091713573D
Coordinates from PDB:3DIR:A:175 Model:1 without hydrogens
 30 29  0  0  0  0  0  0  0  0999 V2000
   34.6010   17.0580   21.9740 O   0  0  0  0  0  0  0  0  0  0  0  0
   33.4190   17.2740   22.3200 C   0  0  0  0  0  0  0  0  0  0  0  0
   33.1580   17.8440   23.4000 O   0  0  0  0  0  0  0  0  0  0  0  0
   32.3120   16.8650   21.3900 C   0  0  1  0  0  0  0  0  0  0  0  0
   32.8770   16.0120   20.3590 N   0  0  0  0  0  0  0  0  0  0  0  0
   31.1840   16.1290   22.1080 C   0  0  0  0  0  0  0  0  0  0  0  0
   30.3410   15.3540   21.0970 C   0  0  0  0  0  0  0  0  0  0  0  0
   28.8770   15.2370   21.5060 C   0  0  0  0  0  0  0  0  0  0  0  0
   27.9880   15.7740   20.3920 C   0  0  0  0  0  0  0  0  0  0  0  0
   27.6140   14.6300   19.5640 N   0  0  0  0  0  0  0  0  0  0  0  0
   28.2280   14.1380   18.4930 C   0  0  0  0  0  0  0  0  0  0  0  0
   29.3470   14.6490   18.0050 N   0  0  0  0  0  0  0  0  0  0  0  0
   27.6370   12.9480   17.8050 C   0  0  0  0  0  0  0  0  0  0  0  0
   32.2668   17.9985   23.6448 H   0  0  0  0  0  0  0  0  0  0  0  0
   31.8828   17.7500   20.9687 H   0  0  0  0  0  0  0  0  0  0  0  0
   33.2778   15.1785   20.7892 H   0  0  0  0  0  0  0  0  0  0  0  0
   33.6062   16.5205   19.8589 H   0  0  0  0  0  0  0  0  0  0  0  0
   30.5648   16.8384   22.6162 H   0  0  0  0  0  0  0  0  0  0  0  0
   31.6045   15.4438   22.8141 H   0  0  0  0  0  0  0  0  0  0  0  0
   30.7471   14.3690   20.9985 H   0  0  0  0  0  0  0  0  0  0  0  0
   30.3728   15.8938   20.1737 H   0  0  0  0  0  0  0  0  0  0  0  0
   28.7106   15.8038   22.3982 H   0  0  0  0  0  0  0  0  0  0  0  0
   28.6400   14.2089   21.6838 H   0  0  0  0  0  0  0  0  0  0  0  0
   28.5232   16.4929   19.8074 H   0  0  0  0  0  0  0  0  0  0  0  0
   27.1220   16.2592   20.7913 H   0  0  0  0  0  0  0  0  0  0  0  0
   26.7940   14.1585   19.8371 H   0  0  0  0  0  0  0  0  0  0  0  0
   29.7596   15.4320   18.4362 H   0  0  0  0  0  0  0  0  0  0  0  0
   26.7419   12.6516   18.3109 H   0  0  0  0  0  0  0  0  0  0  0  0
   28.3397   12.1412   17.8212 H   0  0  0  0  0  0  0  0  0  0  0  0
   27.4068   13.2002   16.7909 H   0  0  0  0  0  0  0  0  0  0  0  0
  1  2  2  0  0  0  0
  2  3  1  0  0  0  0
  3 14  1  0  0  0  0
  4  2  1  0  0  0  0
  4  6  1  0  0  0  0
  4 15  1  6  0  0  0
  5  4  1  0  0  0  0
  5 16  1  0  0  0  0
  5 17  1  0  0  0  0
  6 18  1  0  0  0  0
  6 19  1  0  0  0  0
  7  6  1  0  0  0  0
  7  8  1  0  0  0  0
  7 20  1  0  0  0  0
  7 21  1  0  0  0  0
  8 22  1  0  0  0  0
  8 23  1  0  0  0  0
  9  8  1  0  0  0  0
  9 24  1  0  0  0  0
  9 25  1  0  0  0  0
 10  9  1  0  0  0  0
 10 26  1  0  0  0  0
 11 10  1  0  0  0  0
 12 11  2  0  0  0  0
 12 27  1  0  0  0  0
 13 11  1  0  0  0  0
 13 28  1  0  0  0  0
 13 29  1  0  0  0  0
 13 30  1  0  0  0  0
A    1
O
A    2
C
A    3
OXT
A    4
CA
A    5
N
A    6
CB
A    7
CG'
A    8
CG
A    9
CD
A   10
NE
A   11
CZ
A   12
NH1
A   13
CH2
M  END
>  <InstanceId>
3DIR_IEL_A_175

>  <ChemCompId>
IEL

>  <PdbId>
3DIR

>  <ChainId>
A

>  <ResidueNumber>
175

>  <InsertionCode>


>  <Model>
1

>  <AltIds>


>  <MissingHeavyAtoms>
0

>  <ObservedFormula>
C8 N3 O2

>  <Name>
N~6~-[(1Z)-ethanimidoyl]-L-lysine

>  <SystematicName>
(2S)-2-amino-6-(ethanimidoylamino)hexanoic acid

>  <Synonyms>


>  <Type>
L-PEPTIDE LINKING

>  <Formula>
C8 H17 N3 O2

>  <MolecularWeight>
187.239

>  <ModifiedDate>
2011-06-04

>  <Parent>
LYS

>  <OneLetterCode>
K

>  <SubcomponentList>


>  <AmbiguousFlag>
N

>  <InChI>
InChI=1S/C8H17N3O2/c1-6(9)11-5-3-2-4-7(10)8(12)13/h7H,2-5,10H2,1H3,(H2,9,11)(H,12,13)/t7-/m0/s1

>  <InChIKey>
ONYFNWIHJBLQKE-ZETCQYMHSA-N

>  <SMILES>
[H]/N=C(/C)\NCCCC[C@@H](C(=O)O)N

$$$$
