REMARK  6 active torsions:
REMARK  status: ('A' for Active; 'I' for Inactive)
REMARK    1  A    between atoms: C2_4  and  C1_2 
REMARK    2  A    between atoms: C2_4  and  C3_6 
REMARK    3  A    between atoms: C4_7  and  C3_6 
REMARK    4  A    between atoms: C4_7  and  C5_8 
REMARK    5  A    between atoms: C6_9  and  C5_8 
REMARK    6  A    between atoms: N2_10  and  C6_9 
ROOT
ATOM      1  C4  <1> d          30.341  15.354  21.097  0.00  0.00     0.005 C 
ENDROOT
BRANCH   1   2
ATOM      2  C3  <1> d          31.184  16.129  22.108  0.00  0.00     0.051 C 
BRANCH   2   3
ATOM      3  C2  <1> d          32.312  16.865  21.390  0.00  0.00     0.387 C 
ATOM      4  N1  <1> d          32.877  16.012  20.359  0.00  0.00     0.628 N 
BRANCH   3   5
ATOM      5  C1  <1> d          33.419  17.274  22.320  0.00  0.00     0.224 C 
ATOM      6  O1  <1> d          34.601  17.058  21.974  0.00  0.00    -0.646 OA
ATOM      7  O2  <1> d          33.158  17.844  23.400  0.00  0.00    -0.646 OA
ENDBRANCH   3   5
ENDBRANCH   2   3
ENDBRANCH   1   2
BRANCH   1   8
ATOM      8  C5  <1> d          28.877  15.237  21.506  0.00  0.00     0.026 C 
BRANCH   8   9
ATOM      9  C6  <1> d          27.988  15.774  20.392  0.00  0.00     0.127 C 
BRANCH   9  10
ATOM     10  N2  <1> d          27.614  14.630  19.564  0.00  0.00    -0.255 NA
ATOM     11  C7  <1> d          28.228  14.138  18.493  0.00  0.00     0.157 C 
ATOM     12  N3  <1> d          29.347  14.649  18.005  0.00  0.00    -0.132 N 
ATOM     13  C8  <1> d          27.637  12.948  17.805  0.00  0.00     0.075 C 
ENDBRANCH   9  10
ENDBRANCH   8   9
ENDBRANCH   1   8
TORSDOF 6
