@<TRIPOS>MOLECULE
1FYP_PAR_A_28
 87 90 0 0 0
SMALL
GASTEIGER

@<TRIPOS>ATOM
      1 C           1.8279   17.8965    6.4742 C.3     1  UNL1        0.1776
      2 H           1.3961   16.9461    6.1647 H       1  UNL1        0.0927
      3 O           3.1756   18.0192    6.0110 O.3     1  UNL1       -0.3422
      4 C           3.6640   17.0832    5.0371 C.3     1  UNL1        0.1055
      5 H           4.7543   17.2205    5.0661 H       1  UNL1        0.0639
      6 C           3.2179   17.4585    3.6124 C.3     1  UNL1        0.0355
      7 H           2.1244   17.4130    3.5552 H       1  UNL1        0.0485
      8 C           3.8216   16.4832    2.5850 C.3     1  UNL1       -0.0175
      9 C           3.4338   15.0294    2.8846 C.3     1  UNL1        0.0351
     10 H           2.3460   14.9208    2.8250 H       1  UNL1        0.0485
     11 N           4.0285   14.1339    1.8894 N.3     1  UNL1       -0.3250
     12 C           3.9077   14.6226    4.2832 C.3     1  UNL1        0.0990
     13 H           4.9985   14.5543    4.3026 H       1  UNL1        0.0636
     14 C           3.3810   15.5938    5.3582 C.3     1  UNL1        0.1166
     15 H           2.2975   15.4289    5.3799 H       1  UNL1        0.0650
     16 O           3.8236   15.2541    6.6823 O.3     1  UNL1       -0.3402
     17 C           5.2317   15.1929    6.8521 C.3     1  UNL1        0.1884
     18 H           5.7565   15.6232    5.9926 H       1  UNL1        0.0938
     19 C           5.6512   15.9294    8.1142 C.3     1  UNL1        0.1345
     20 H           4.9871   15.6662    8.9470 H       1  UNL1        0.0671
     21 O           5.6405   17.3318    7.9325 O.3     1  UNL1       -0.3841
     22 C           7.0575   15.3611    8.2901 C.3     1  UNL1        0.1205
     23 H           7.4492   15.5526    9.2936 H       1  UNL1        0.0651
     24 O           7.8844   16.0632    7.3510 O.3     1  UNL1       -0.3410
     25 C           8.8612   15.3194    6.6159 C.3     1  UNL1        0.1776
     26 H           9.3260   14.5743    7.2741 H       1  UNL1        0.0927
     27 C           9.9637   16.2961    6.1349 C.3     1  UNL1        0.0853
     28 H          10.8473   15.7164    5.8302 H       1  UNL1        0.0535
     29 N          10.3914   17.1834    7.2235 N.3     1  UNL1       -0.3211
     30 C           9.4598   17.1165    4.9383 C.3     1  UNL1        0.1033
     31 H           8.7235   17.8586    5.2749 H       1  UNL1        0.0637
     32 O          10.5615   17.8314    4.3765 O.3     1  UNL1       -0.3874
     33 C           8.8804   16.2165    3.8382 C.3     1  UNL1        0.1100
     34 H           9.4699   16.2953    2.9157 H       1  UNL1        0.0646
     35 O           7.5780   16.6984    3.5092 O.3     1  UNL1       -0.3866
     36 C           8.8331   14.7368    4.2612 C.3     1  UNL1        0.1022
     37 H           9.8489   14.3306    4.3475 H       1  UNL1        0.0636
     38 O           8.2094   14.6312    5.5369 O.3     1  UNL1       -0.3425
     39 C           8.0542   13.8709    3.2596 C.3     1  UNL1        0.0222
     40 N           7.8490   12.5208    3.7793 N.3     1  UNL1       -0.3276
     41 C           6.7690   13.8732    8.0123 C.3     1  UNL1        0.1135
     42 H           7.6172   13.3377    7.5892 H       1  UNL1        0.0647
     43 O           5.7115   13.8455    7.0279 O.3     1  UNL1       -0.3405
     44 C           6.3058   13.0936    9.2436 C.3     1  UNL1        0.0730
     45 O           7.3493   13.0557   10.2100 O.3     1  UNL1       -0.3924
     46 O           3.3943   13.3195    4.5931 O.3     1  UNL1       -0.3876
     47 N           3.6324   18.8281    3.3081 N.3     1  UNL1       -0.3250
     48 C           0.9538   19.0449    5.9430 C.3     1  UNL1        0.0853
     49 H           0.8952   18.9665    4.8502 H       1  UNL1        0.0535
     50 N           1.5520   20.3479    6.2546 N.3     1  UNL1       -0.3211
     51 C          -0.4609   18.9738    6.5498 C.3     1  UNL1        0.1033
     52 H          -0.7180   19.8987    7.0805 H       1  UNL1        0.0637
     53 O          -1.4268   18.8407    5.5015 O.3     1  UNL1       -0.3874
     54 C          -0.6416   17.7842    7.4966 C.3     1  UNL1        0.1109
     55 H          -0.7572   16.8622    6.9150 H       1  UNL1        0.0646
     56 O          -1.8509   17.9642    8.2398 O.3     1  UNL1       -0.3865
     57 C           0.5255   17.6439    8.4911 C.3     1  UNL1        0.1129
     58 H           0.3929   18.3447    9.3247 H       1  UNL1        0.0647
     59 O           1.8021   17.9534    7.9084 O.3     1  UNL1       -0.3415
     60 C           0.6280   16.2218    9.0559 C.3     1  UNL1        0.0730
     61 O          -0.4235   15.9908    9.9852 O.3     1  UNL1       -0.3924
     62 H           4.9150   16.5844    2.5793 H       1  UNL1        0.0297
     63 H           3.4858   16.7576    1.5795 H       1  UNL1        0.0297
     64 H           5.0088   14.3707    1.7392 H       1  UNL1        0.1185
     65 H           3.5661   14.2616    0.9925 H       1  UNL1        0.1185
     66 H           5.6012   17.7363    8.8156 H       1  UNL1        0.2101
     67 H          11.1124   17.8220    6.8906 H       1  UNL1        0.1187
     68 H          10.8351   16.6210    7.9530 H       1  UNL1        0.1187
     69 H          10.4268   18.7747    4.5703 H       1  UNL1        0.2100
     70 H           7.0021   16.5515    4.2791 H       1  UNL1        0.2100
     71 H           8.6150   13.8121    2.3197 H       1  UNL1        0.0448
     72 H           7.0794   14.3109    3.0222 H       1  UNL1        0.0448
     73 H           8.2549   11.8402    3.1390 H       1  UNL1        0.1183
     74 H           6.8508   12.3189    3.8102 H       1  UNL1        0.1183
     75 H           5.4257   13.5427    9.7119 H       1  UNL1        0.0584
     76 H           6.0616   12.0638    8.9709 H       1  UNL1        0.0584
     77 H           8.0294   12.4498    9.8702 H       1  UNL1        0.2095
     78 H           3.8849   12.9883    5.3650 H       1  UNL1        0.2100
     79 H           3.4536   19.0382    2.3265 H       1  UNL1        0.1185
     80 H           4.6399   18.9217    3.4425 H       1  UNL1        0.1185
     81 H           2.4885   20.3882    5.8578 H       1  UNL1        0.1187
     82 H           1.0216   21.0784    5.7845 H       1  UNL1        0.1187
     83 H          -1.3951   19.6535    4.9691 H       1  UNL1        0.2100
     84 H          -2.5062   17.3458    7.8762 H       1  UNL1        0.2100
     85 H           0.5559   15.4730    8.2597 H       1  UNL1        0.0584
     86 H           1.5873   16.0747    9.5709 H       1  UNL1        0.0584
     87 H          -0.0755   16.1822   10.8733 H       1  UNL1        0.2095
@<TRIPOS>BOND
     1     1    48    1
     2     1    59    1
     3     1     3    1
     4     1     2    1
     5     4     6    1
     6     4     5    1
     7     4     3    1
     8     6     7    1
     9     6     8    1
    10     6    47    1
    11     8     9    1
    12     8    62    1
    13     8    63    1
    14     9    12    1
    15     9    11    1
    16     9    10    1
    17    11    64    1
    18    11    65    1
    19    12    13    1
    20    12    14    1
    21    12    46    1
    22    14     4    1
    23    14    16    1
    24    14    15    1
    25    16    17    1
    26    17    18    1
    27    17    19    1
    28    17    43    1
    29    19    22    1
    30    19    21    1
    31    19    20    1
    32    21    66    1
    33    22    23    1
    34    22    24    1
    35    22    41    1
    36    25    27    1
    37    25    38    1
    38    25    26    1
    39    25    24    1
    40    27    30    1
    41    27    29    1
    42    27    28    1
    43    29    67    1
    44    29    68    1
    45    30    32    1
    46    30    31    1
    47    32    69    1
    48    33    30    1
    49    33    34    1
    50    33    35    1
    51    35    70    1
    52    36    33    1
    53    36    37    1
    54    36    38    1
    55    36    39    1
    56    39    40    1
    57    39    71    1
    58    39    72    1
    59    40    73    1
    60    40    74    1
    61    41    43    1
    62    41    44    1
    63    41    42    1
    64    44    45    1
    65    44    75    1
    66    44    76    1
    67    45    77    1
    68    46    78    1
    69    47    79    1
    70    47    80    1
    71    48    51    1
    72    48    50    1
    73    48    49    1
    74    50    81    1
    75    50    82    1
    76    51    54    1
    77    51    53    1
    78    51    52    1
    79    53    83    1
    80    54    55    1
    81    54    56    1
    82    54    57    1
    83    56    84    1
    84    57    59    1
    85    57    60    1
    86    57    58    1
    87    60    61    1
    88    60    85    1
    89    60    86    1
    90    61    87    1
