REMARK  22 active torsions:
REMARK  status: ('A' for Active; 'I' for Inactive)
REMARK    1  A    between atoms: C_1  and  O_2 
REMARK    2  A    between atoms: C_3  and  O_2 
REMARK    3  A    between atoms: C_4  and  N_32 
REMARK    4  A    between atoms: C_6  and  N_7 
REMARK    5  A    between atoms: C_8  and  O_31 
REMARK    6  A    between atoms: C_9  and  O_10 
REMARK    7  A    between atoms: O_10  and  C_11 
REMARK    8  A    between atoms: C_12  and  O_13 
REMARK    9  A    between atoms: C_14  and  O_15 
REMARK   10  A    between atoms: C_16  and  O_15 
REMARK   11  A    between atoms: C_17  and  N_18 
REMARK   12  A    between atoms: C_19  and  O_20 
REMARK   13  A    between atoms: C_21  and  O_22 
REMARK   14  A    between atoms: C_23  and  C_25 
REMARK   15  A    between atoms: C_25  and  N_26 
REMARK   16  A    between atoms: C_27  and  C_29 
REMARK   17  A    between atoms: C_29  and  O_30 
REMARK   18  A    between atoms: C_33  and  N_34 
REMARK   19  A    between atoms: C_35  and  O_36 
REMARK   20  A    between atoms: C_37  and  O_38 
REMARK   21  A    between atoms: C_39  and  C_41 
REMARK   22  A    between atoms: C_41  and  O_42 
ROOT
ATOM      1  C   UNL d   1       3.664  17.083   5.037  0.00  0.00     0.189 C 
ATOM      2  C   UNL d   1       3.218  17.459   3.612  0.00  0.00     0.251 C 
ATOM      3  C   UNL d   1       3.822  16.483   2.585  0.00  0.00     0.076 C 
ATOM      4  C   UNL d   1       3.434  15.029   2.885  0.00  0.00     0.251 C 
ATOM      5  C   UNL d   1       3.908  14.623   4.283  0.00  0.00     0.182 C 
ATOM      6  C   UNL d   1       3.381  15.594   5.358  0.00  0.00     0.186 C 
ENDROOT
BRANCH   6   7
ATOM      7  O   UNL d   1       3.824  15.254   6.682  0.00  0.00    -0.348 OA
BRANCH   7   8
ATOM      8  C   UNL d   1       5.232  15.193   6.852  0.00  0.00     0.292 C 
ATOM      9  C   UNL d   1       5.651  15.929   8.114  0.00  0.00     0.205 C 
ATOM     10  C   UNL d   1       7.058  15.361   8.290  0.00  0.00     0.189 C 
ATOM     11  C   UNL d   1       6.769  13.873   8.012  0.00  0.00     0.180 C 
ATOM     12  O   UNL d   1       5.712  13.845   7.028  0.00  0.00    -0.348 OA
BRANCH   9  13
ATOM     13  O   UNL d   1       5.641  17.332   7.933  0.00  0.00    -0.388 OA
ATOM     14  H   UNL d   1       5.601  17.736   8.816  0.00  0.00     0.210 HD
ENDBRANCH   9  13
BRANCH  10  15
ATOM     15  O   UNL d   1       7.884  16.063   7.351  0.00  0.00    -0.348 OA
BRANCH  15  16
ATOM     16  C   UNL d   1       8.861  15.319   6.616  0.00  0.00     0.296 C 
ATOM     17  C   UNL d   1       9.964  16.296   6.135  0.00  0.00     0.303 C 
ATOM     18  C   UNL d   1       9.460  17.116   4.938  0.00  0.00     0.187 C 
ATOM     19  C   UNL d   1       8.880  16.216   3.838  0.00  0.00     0.179 C 
ATOM     20  C   UNL d   1       8.833  14.737   4.261  0.00  0.00     0.183 C 
ATOM     21  O   UNL d   1       8.209  14.631   5.537  0.00  0.00    -0.349 OA
BRANCH  17  22
ATOM     22  N   UNL d   1      10.391  17.183   7.223  0.00  0.00     0.090 N 
ATOM     23  H   UNL d   1      11.112  17.822   6.891  0.00  0.00     0.313 HD
ATOM     24  H   UNL d   1      10.835  16.621   7.953  0.00  0.00     0.313 HD
ENDBRANCH  17  22
BRANCH  18  25
ATOM     25  O   UNL d   1      10.562  17.831   4.377  0.00  0.00    -0.391 OA
ATOM     26  H   UNL d   1      10.427  18.775   4.570  0.00  0.00     0.210 HD
ENDBRANCH  18  25
BRANCH  19  27
ATOM     27  O   UNL d   1       7.578  16.698   3.509  0.00  0.00    -0.390 OA
ATOM     28  H   UNL d   1       7.002  16.552   4.279  0.00  0.00     0.210 HD
ENDBRANCH  19  27
BRANCH  20  29
ATOM     29  C   UNL d   1       8.054  13.871   3.260  0.00  0.00     0.301 C 
BRANCH  29  30
ATOM     30  N   UNL d   1       7.849  12.521   3.779  0.00  0.00     0.080 N 
ATOM     31  H   UNL d   1       8.255  11.840   3.139  0.00  0.00     0.312 HD
ATOM     32  H   UNL d   1       6.851  12.319   3.810  0.00  0.00     0.312 HD
ENDBRANCH  29  30
ENDBRANCH  20  29
ENDBRANCH  15  16
ENDBRANCH  10  15
BRANCH  11  33
ATOM     33  C   UNL d   1       6.306  13.094   9.244  0.00  0.00     0.198 C 
BRANCH  33  34
ATOM     34  O   UNL d   1       7.349  13.056  10.210  0.00  0.00    -0.398 OA
ATOM     35  H   UNL d   1       8.029  12.450   9.870  0.00  0.00     0.209 HD
ENDBRANCH  33  34
ENDBRANCH  11  33
ENDBRANCH   7   8
ENDBRANCH   6   7
BRANCH   5  36
ATOM     36  O   UNL d   1       3.394  13.319   4.593  0.00  0.00    -0.391 OA
ATOM     37  H   UNL d   1       3.885  12.988   5.365  0.00  0.00     0.210 HD
ENDBRANCH   5  36
BRANCH   1  38
ATOM     38  O   UNL d   1       3.176  18.019   6.011  0.00  0.00    -0.349 OA
BRANCH  38  39
ATOM     39  C   UNL d   1       1.828  17.896   6.474  0.00  0.00     0.296 C 
ATOM     40  C   UNL d   1       0.954  19.045   5.943  0.00  0.00     0.303 C 
ATOM     41  C   UNL d   1      -0.461  18.974   6.550  0.00  0.00     0.187 C 
ATOM     42  C   UNL d   1      -0.642  17.784   7.497  0.00  0.00     0.180 C 
ATOM     43  C   UNL d   1       0.525  17.644   8.491  0.00  0.00     0.179 C 
ATOM     44  O   UNL d   1       1.802  17.953   7.908  0.00  0.00    -0.349 OA
BRANCH  40  45
ATOM     45  N   UNL d   1       1.552  20.348   6.255  0.00  0.00     0.090 N 
ATOM     46  H   UNL d   1       2.489  20.388   5.858  0.00  0.00     0.313 HD
ATOM     47  H   UNL d   1       1.022  21.078   5.785  0.00  0.00     0.313 HD
ENDBRANCH  40  45
BRANCH  41  48
ATOM     48  O   UNL d   1      -1.427  18.841   5.502  0.00  0.00    -0.391 OA
ATOM     49  H   UNL d   1      -1.395  19.654   4.969  0.00  0.00     0.210 HD
ENDBRANCH  41  48
BRANCH  42  50
ATOM     50  O   UNL d   1      -1.851  17.964   8.240  0.00  0.00    -0.390 OA
ATOM     51  H   UNL d   1      -2.506  17.346   7.876  0.00  0.00     0.210 HD
ENDBRANCH  42  50
BRANCH  43  52
ATOM     52  C   UNL d   1       0.628  16.222   9.056  0.00  0.00     0.198 C 
BRANCH  52  53
ATOM     53  O   UNL d   1      -0.423  15.991   9.985  0.00  0.00    -0.398 OA
ATOM     54  H   UNL d   1      -0.075  16.182  10.873  0.00  0.00     0.209 HD
ENDBRANCH  52  53
ENDBRANCH  43  52
ENDBRANCH  38  39
ENDBRANCH   1  38
BRANCH   4  55
ATOM     55  N   UNL d   1       4.029  14.134   1.889  0.00  0.00     0.085 N 
ATOM     56  H   UNL d   1       5.009  14.371   1.739  0.00  0.00     0.313 HD
ATOM     57  H   UNL d   1       3.566  14.262   0.993  0.00  0.00     0.313 HD
ENDBRANCH   4  55
BRANCH   2  58
ATOM     58  N   UNL d   1       3.632  18.828   3.308  0.00  0.00     0.085 N 
ATOM     59  H   UNL d   1       3.454  19.038   2.326  0.00  0.00     0.313 HD
ATOM     60  H   UNL d   1       4.640  18.922   3.442  0.00  0.00     0.313 HD
ENDBRANCH   2  58
TORSDOF 22
