REMARK  16 active torsions:
REMARK  status: ('A' for Active; 'I' for Inactive)
REMARK    1  A    between atoms: C_1  and  O_12 
REMARK    2  A    between atoms: C_2  and  O_11 
REMARK    3  A    between atoms: C_3  and  N_10 
REMARK    4  A    between atoms: C_4  and  O_9 
REMARK    5  A    between atoms: C_5  and  C_6 
REMARK    6  A    between atoms: C_6  and  O_7 
REMARK    7  A    between atoms: O_12  and  C_13 
REMARK    8  A    between atoms: C_14  and  N_32 
REMARK    9  A    between atoms: C_16  and  N_31 
REMARK   10  A    between atoms: C_17  and  O_18 
REMARK   11  A    between atoms: C_19  and  O_18 
REMARK   12  A    between atoms: C_20  and  N_28 
REMARK   13  A    between atoms: C_22  and  O_27 
REMARK   14  A    between atoms: C_23  and  C_24 
REMARK   15  A    between atoms: C_24  and  N_25 
REMARK   16  A    between atoms: C_29  and  O_30 
ROOT
ATOM      1  C   UNL d   1       3.202   3.703   2.195  0.00  0.00     0.189 C 
ATOM      2  C   UNL d   1       1.788   4.045   2.780  0.00  0.00     0.251 C 
ATOM      3  C   UNL d   1       0.696   3.135   2.188  0.00  0.00     0.076 C 
ATOM      4  C   UNL d   1       0.991   1.626   2.219  0.00  0.00     0.251 C 
ATOM      5  C   UNL d   1       2.378   1.300   1.638  0.00  0.00     0.189 C 
ATOM      6  C   UNL d   1       3.477   2.187   2.283  0.00  0.00     0.180 C 
ENDROOT
BRANCH   1   7
ATOM      7  O   UNL d   1       3.283   4.248   0.865  0.00  0.00    -0.348 OA
BRANCH   7   8
ATOM      8  C   UNL d   1       4.537   4.126   0.173  0.00  0.00     0.291 C 
ATOM      9  C   UNL d   1       5.630   5.025   0.817  0.00  0.00     0.208 C 
ATOM     10  C   UNL d   1       6.915   5.046  -0.028  0.00  0.00     0.282 C 
ATOM     11  C   UNL d   1       6.564   5.424  -1.487  0.00  0.00     0.184 C 
ATOM     12  C   UNL d   1       5.425   4.563  -2.064  0.00  0.00     0.179 C 
ATOM     13  O   UNL d   1       4.285   4.513  -1.185  0.00  0.00    -0.349 OA
BRANCH   9  14
ATOM     14  O   UNL d   1       5.192   6.389   0.966  0.00  0.00    -0.388 OA
ATOM     15  H   UNL d   1       4.263   6.404   0.650  0.00  0.00     0.210 HD
ENDBRANCH   9  14
BRANCH  10  16
ATOM     16  N   UNL d   1       7.651   3.774   0.077  0.00  0.00     0.088 N 
ATOM     17  H   UNL d   1       8.482   3.809  -0.518  0.00  0.00     0.313 HD
ATOM     18  H   UNL d   1       8.009   3.675   1.028  0.00  0.00     0.313 HD
ENDBRANCH  10  16
BRANCH  11  19
ATOM     19  O   UNL d   1       6.200   6.813  -1.591  0.00  0.00    -0.391 OA
ATOM     20  H   UNL d   1       6.174   7.196  -0.693  0.00  0.00     0.210 HD
ENDBRANCH  11  19
BRANCH  12  21
ATOM     21  C   UNL d   1       5.918   3.166  -2.504  0.00  0.00     0.198 C 
BRANCH  21  22
ATOM     22  O   UNL d   1       4.916   2.439  -3.197  0.00  0.00    -0.398 OA
ATOM     23  H   UNL d   1       4.052   2.696  -2.810  0.00  0.00     0.209 HD
ENDBRANCH  21  22
ENDBRANCH  12  21
ENDBRANCH   7   8
ENDBRANCH   1   7
BRANCH   2  24
ATOM     24  N   UNL d   1       1.755   4.037   4.253  0.00  0.00     0.085 N 
ATOM     25  H   UNL d   1       2.295   3.241   4.608  0.00  0.00     0.313 HD
ATOM     26  H   UNL d   1       0.799   3.944   4.595  0.00  0.00     0.313 HD
ENDBRANCH   2  24
BRANCH   6  27
ATOM     27  O   UNL d   1       3.663   1.827   3.670  0.00  0.00    -0.390 OA
ATOM     28  H   UNL d   1       3.908   0.883   3.691  0.00  0.00     0.210 HD
ENDBRANCH   6  27
BRANCH   5  29
ATOM     29  O   UNL d   1       2.399   1.409   0.207  0.00  0.00    -0.349 OA
BRANCH  29  30
ATOM     30  C   UNL d   1       2.005   0.183  -0.438  0.00  0.00     0.293 C 
ATOM     31  C   UNL d   1       2.419   0.174  -1.937  0.00  0.00     0.275 C 
ATOM     32  C   UNL d   1       2.280  -1.286  -2.393  0.00  0.00     0.074 C 
ATOM     33  C   UNL d   1       0.874  -1.838  -2.144  0.00  0.00     0.151 C 
ATOM     34  C   UNL d   1       0.172  -1.332  -0.851  0.00  0.00     0.181 C 
ATOM     35  O   UNL d   1       0.605  -0.059  -0.343  0.00  0.00    -0.349 OA
BRANCH  31  36
ATOM     36  N   UNL d   1       1.626   1.066  -2.811  0.00  0.00     0.087 N 
ATOM     37  H   UNL d   1       0.651   0.744  -2.792  0.00  0.00     0.313 HD
ATOM     38  H   UNL d   1       1.924   0.954  -3.778  0.00  0.00     0.313 HD
ENDBRANCH  31  36
BRANCH  33  39
ATOM     39  O   UNL d   1       0.058  -1.469  -3.273  0.00  0.00    -0.393 OA
ATOM     40  H   UNL d   1       0.454  -1.881  -4.062  0.00  0.00     0.210 HD
ENDBRANCH  33  39
BRANCH  34  41
ATOM     41  C   UNL d   1       0.132  -2.386   0.278  0.00  0.00     0.301 C 
BRANCH  41  42
ATOM     42  N   UNL d   1       1.442  -2.822   0.774  0.00  0.00     0.080 N 
ATOM     43  H   UNL d   1       1.653  -2.262   1.605  0.00  0.00     0.312 HD
ATOM     44  H   UNL d   1       1.345  -3.773   1.137  0.00  0.00     0.312 HD
ENDBRANCH  41  42
ENDBRANCH  34  41
ENDBRANCH  29  30
ENDBRANCH   5  29
BRANCH   4  45
ATOM     45  N   UNL d   1       0.836   1.033   3.565  0.00  0.00     0.085 N 
ATOM     46  H   UNL d   1      -0.062   1.315   3.956  0.00  0.00     0.313 HD
ATOM     47  H   UNL d   1       1.552   1.421   4.180  0.00  0.00     0.313 HD
ENDBRANCH   4  45
TORSDOF 16
