@<TRIPOS>MOLECULE
ligands/ligand.pdb
 69 71 0 0 0
SMALL
GASTEIGER

@<TRIPOS>ATOM
      1 C           4.5375    4.1260    0.1727 C.3     1  UNL1        0.1874
      2 H           4.8483    3.0795    0.1552 H       1  UNL1        0.0937
      3 C           5.6300    5.0247    0.8170 C.3     1  UNL1        0.1234
      4 H           5.8559    4.6750    1.8296 H       1  UNL1        0.0660
      5 C           6.9154    5.0461   -0.0281 C.3     1  UNL1        0.0647
      6 H           7.5729    5.8337    0.3645 H       1  UNL1        0.0512
      7 C           6.5640    5.4243   -1.4871 C.3     1  UNL1        0.1012
      8 H           7.4557    5.3267   -2.1238 H       1  UNL1        0.0636
      9 C           5.4246    4.5628   -2.0637 C.3     1  UNL1        0.1120
     10 H           5.0321    5.0529   -2.9630 H       1  UNL1        0.0646
     11 C           5.9181    3.1661   -2.5037 C.3     1  UNL1        0.0730
     12 O           4.9158    2.4389   -3.1973 O.3     1  UNL1       -0.3924
     13 O           4.2855    4.5129   -1.1854 O.3     1  UNL1       -0.3406
     14 O           6.1997    6.8128   -1.5915 O.3     1  UNL1       -0.3875
     15 N           7.6506    3.7739    0.0767 N.3     1  UNL1       -0.3229
     16 O           5.1918    6.3894    0.9656 O.3     1  UNL1       -0.3851
     17 O           3.2828    4.2483    0.8650 O.3     1  UNL1       -0.3413
     18 C           3.2016    3.7031    2.1946 C.3     1  UNL1        0.1051
     19 H           3.9271    4.2422    2.8163 H       1  UNL1        0.0639
     20 C           1.7882    4.0445    2.7797 C.3     1  UNL1        0.0355
     21 H           1.5355    5.0716    2.4872 H       1  UNL1        0.0485
     22 C           0.6958    3.1347    2.1877 C.3     1  UNL1       -0.0175
     23 C           0.9905    1.6260    2.2190 C.3     1  UNL1        0.0355
     24 H           0.2045    1.1539    1.6107 H       1  UNL1        0.0485
     25 C           2.3781    1.2997    1.6384 C.3     1  UNL1        0.1051
     26 H           2.6284    0.2661    1.9114 H       1  UNL1        0.0639
     27 O           2.3994    1.4093    0.2068 O.3     1  UNL1       -0.3423
     28 C           2.0046    0.1834   -0.4379 C.3     1  UNL1        0.1752
     29 H           2.5580   -0.6217    0.0541 H       1  UNL1        0.0926
     30 C           2.4193    0.1740   -1.9368 C.3     1  UNL1        0.0590
     31 H           3.4637    0.4879   -2.0206 H       1  UNL1        0.0509
     32 C           2.2798   -1.2855   -2.3934 C.3     1  UNL1       -0.0044
     33 C           0.8742   -1.8383   -2.1442 C.3     1  UNL1        0.0842
     34 H           0.8994   -2.9347   -2.1539 H       1  UNL1        0.0620
     35 C           0.1723   -1.3319   -0.8510 C.3     1  UNL1        0.0998
     36 H          -0.8826   -1.1617   -1.1063 H       1  UNL1        0.0635
     37 C           0.1316   -2.3857    0.2779 C.3     1  UNL1        0.0221
     38 N           1.4415   -2.8225    0.7743 N.3     1  UNL1       -0.3276
     39 O           0.6046   -0.0587   -0.3426 O.3     1  UNL1       -0.3427
     40 O           0.0579   -1.4693   -3.2729 O.3     1  UNL1       -0.3891
     41 N           1.6256    1.0657   -2.8109 N.3     1  UNL1       -0.3231
     42 C           3.4773    2.1865    2.2831 C.3     1  UNL1        0.1104
     43 H           4.4323    1.9604    1.7962 H       1  UNL1        0.0646
     44 O           3.6631    1.8270    3.6702 O.3     1  UNL1       -0.3865
     45 N           0.8357    1.0329    3.5646 N.3     1  UNL1       -0.3250
     46 N           1.7552    4.0365    4.2526 N.3     1  UNL1       -0.3250
     47 H           6.7680    3.2843   -3.1919 H       1  UNL1        0.0584
     48 H           6.2496    2.5501   -1.6664 H       1  UNL1        0.0584
     49 H           4.0524    2.6956   -2.8104 H       1  UNL1        0.2095
     50 H           6.1736    7.1961   -0.6932 H       1  UNL1        0.2100
     51 H           8.4820    3.8094   -0.5176 H       1  UNL1        0.1186
     52 H           8.0095    3.6752    1.0280 H       1  UNL1        0.1186
     53 H           4.2633    6.4045    0.6497 H       1  UNL1        0.2101
     54 H           0.5482    3.4286    1.1405 H       1  UNL1        0.0297
     55 H          -0.2692    3.3376    2.6791 H       1  UNL1        0.0297
     56 H           3.0022   -1.8890   -1.8281 H       1  UNL1        0.0308
     57 H           2.5579   -1.3751   -3.4495 H       1  UNL1        0.0308
     58 H          -0.4405   -1.9872    1.1255 H       1  UNL1        0.0448
     59 H          -0.4086   -3.2667   -0.0865 H       1  UNL1        0.0448
     60 H           1.6528   -2.2617    1.6046 H       1  UNL1        0.1183
     61 H           1.3447   -3.7729    1.1372 H       1  UNL1        0.1183
     62 H           0.4535   -1.8806   -4.0624 H       1  UNL1        0.2099
     63 H           0.6508    0.7438   -2.7920 H       1  UNL1        0.1186
     64 H           1.9239    0.9543   -3.7784 H       1  UNL1        0.1186
     65 H           3.9078    0.8832    3.6905 H       1  UNL1        0.2100
     66 H          -0.0623    1.3151    3.9556 H       1  UNL1        0.1185
     67 H           1.5515    1.4213    4.1802 H       1  UNL1        0.1185
     68 H           2.2952    3.2410    4.6080 H       1  UNL1        0.1185
     69 H           0.7986    3.9442    4.5945 H       1  UNL1        0.1185
@<TRIPOS>BOND
     1     1     3    1
     2     1    13    1
     3     1    17    1
     4     1     2    1
     5     3     5    1
     6     3    16    1
     7     3     4    1
     8     5     7    1
     9     5    15    1
    10     5     6    1
    11     7     8    1
    12     7    14    1
    13     9     7    1
    14     9    13    1
    15     9    11    1
    16     9    10    1
    17    11    12    1
    18    11    47    1
    19    11    48    1
    20    12    49    1
    21    14    50    1
    22    15    51    1
    23    15    52    1
    24    16    53    1
    25    17    18    1
    26    18    19    1
    27    18    20    1
    28    20    22    1
    29    20    46    1
    30    20    21    1
    31    22    23    1
    32    22    54    1
    33    22    55    1
    34    23    24    1
    35    23    25    1
    36    23    45    1
    37    25    42    1
    38    25    27    1
    39    25    26    1
    40    28    30    1
    41    28    39    1
    42    28    29    1
    43    28    27    1
    44    30    32    1
    45    30    41    1
    46    30    31    1
    47    32    33    1
    48    32    56    1
    49    32    57    1
    50    33    34    1
    51    33    35    1
    52    33    40    1
    53    35    39    1
    54    35    37    1
    55    35    36    1
    56    37    38    1
    57    37    58    1
    58    37    59    1
    59    38    60    1
    60    38    61    1
    61    40    62    1
    62    41    63    1
    63    41    64    1
    64    42    43    1
    65    42    18    1
    66    42    44    1
    67    44    65    1
    68    45    66    1
    69    45    67    1
    70    46    68    1
    71    46    69    1
