@<TRIPOS>MOLECULE
2FCX_XXX_A_101
 48 49 0 0 0
SMALL
GASTEIGER

@<TRIPOS>ATOM
      1 O          -1.2943    2.1469   -1.5985 O.3     1  UNL1       -0.3866
      2 C          -0.9967    0.7934   -1.2587 C.3     1  UNL1        0.1101
      3 H          -0.0359    0.5268   -1.7214 H       1  UNL1        0.0646
      4 C          -2.1040   -0.0828   -1.8395 C.3     1  UNL1        0.0986
      5 H          -3.0991    0.3036   -1.5967 H       1  UNL1        0.0635
      6 O          -1.9892   -0.0117   -3.2660 O.3     1  UNL1       -0.3876
      7 C          -1.9643   -1.5480   -1.3975 C.3     1  UNL1        0.0351
      8 H          -1.0584   -1.9729   -1.8429 H       1  UNL1        0.0485
      9 N          -3.0964   -2.3518   -1.8580 N.3     1  UNL1       -0.3250
     10 C          -1.8587   -1.6647    0.1291 C.3     1  UNL1       -0.0175
     11 C          -0.7032   -0.8042    0.6620 C.3     1  UNL1        0.0355
     12 H           0.2468   -1.1545    0.2354 H       1  UNL1        0.0485
     13 N          -0.6254   -0.9135    2.1230 N.3     1  UNL1       -0.3250
     14 C          -0.9050    0.6711    0.2628 C.3     1  UNL1        0.1051
     15 H          -1.8363    1.0349    0.7027 H       1  UNL1        0.0639
     16 O           0.2346    1.4108    0.7214 O.3     1  UNL1       -0.3422
     17 C          -0.0027    2.7045    1.2941 C.3     1  UNL1        0.1776
     18 H           0.1889    3.4140    0.4790 H       1  UNL1        0.0927
     19 O          -1.3236    2.9145    1.7903 O.3     1  UNL1       -0.3425
     20 C          -1.6277    4.2679    2.1559 C.3     1  UNL1        0.1022
     21 H          -2.3128    4.1743    3.0112 H       1  UNL1        0.0636
     22 C          -2.4053    4.9675    1.0313 C.3     1  UNL1        0.0222
     23 N          -1.5558    5.3443   -0.0876 N.3     1  UNL1       -0.3276
     24 C          -0.3811    5.0504    2.6102 C.3     1  UNL1        0.1100
     25 H           0.1539    5.4945    1.7613 H       1  UNL1        0.0646
     26 O          -0.7877    6.1499    3.4294 O.3     1  UNL1       -0.3866
     27 C           0.5805    4.1253    3.3494 C.3     1  UNL1        0.1033
     28 H           0.1112    3.7603    4.2698 H       1  UNL1        0.0637
     29 O           1.7276    4.8719    3.7473 O.3     1  UNL1       -0.3874
     30 C           1.0175    2.9595    2.4365 C.3     1  UNL1        0.0853
     31 H           1.9946    3.1644    1.9833 H       1  UNL1        0.0535
     32 N           1.1878    1.7455    3.2350 N.3     1  UNL1       -0.3211
     33 H          -0.4493    2.5904   -1.7835 H       1  UNL1        0.2100
     34 H          -1.7884    0.9206   -3.4959 H       1  UNL1        0.2100
     35 H          -3.9798   -1.8766   -1.6784 H       1  UNL1        0.1185
     36 H          -3.0356   -2.4510   -2.8749 H       1  UNL1        0.1185
     37 H          -2.7958   -1.3670    0.6118 H       1  UNL1        0.0297
     38 H          -1.6877   -2.7080    0.4204 H       1  UNL1        0.0297
     39 H          -0.3688   -1.8717    2.3674 H       1  UNL1        0.1185
     40 H           0.1347   -0.3295    2.4606 H       1  UNL1        0.1185
     41 H          -3.2150    4.3184    0.6788 H       1  UNL1        0.0448
     42 H          -2.8866    5.8667    1.4391 H       1  UNL1        0.0448
     43 H          -1.5685    4.6167   -0.7996 H       1  UNL1        0.1183
     44 H          -1.8965    6.2008   -0.5210 H       1  UNL1        0.1183
     45 H          -1.1911    5.7914    4.2371 H       1  UNL1        0.2100
     46 H           1.5167    5.2817    4.6037 H       1  UNL1        0.2100
     47 H           1.8981    1.8855    3.9527 H       1  UNL1        0.1187
     48 H           0.3222    1.5199    3.7194 H       1  UNL1        0.1187
@<TRIPOS>BOND
     1     2     1    1
     2     2     3    1
     3     4     2    1
     4     4     5    1
     5     6     4    1
     6     7     4    1
     7     7     8    1
     8     9     7    1
     9    10     7    1
    10    11    10    1
    11    11    12    1
    12    13    11    1
    13    14    11    1
    14    14    15    1
    15    14     2    1
    16    16    14    1
    17    17    16    1
    18    17    18    1
    19    19    17    1
    20    20    19    1
    21    20    21    1
    22    22    20    1
    23    23    22    1
    24    24    20    1
    25    24    25    1
    26    26    24    1
    27    27    24    1
    28    27    28    1
    29    29    27    1
    30    30    27    1
    31    30    31    1
    32    30    17    1
    33    32    30    1
    34     1    33    1
    35     6    34    1
    36     9    35    1
    37     9    36    1
    38    10    37    1
    39    10    38    1
    40    13    39    1
    41    13    40    1
    42    22    41    1
    43    22    42    1
    44    23    43    1
    45    23    44    1
    46    26    45    1
    47    29    46    1
    48    32    47    1
    49    32    48    1
