REMARK  11 active torsions:
REMARK  status: ('A' for Active; 'I' for Inactive)
REMARK    1  A    between atoms: C_2  and  O_1 
REMARK    2  A    between atoms: O_4  and  C_3 
REMARK    3  A    between atoms: N_6  and  C_5 
REMARK    4  A    between atoms: N_9  and  C_8 
REMARK    5  A    between atoms: O_11  and  C_10 
REMARK    6  A    between atoms: C_12  and  O_11 
REMARK    7  A    between atoms: C_15  and  C_14 
REMARK    8  A    between atoms: N_16  and  C_15 
REMARK    9  A    between atoms: O_18  and  C_17 
REMARK   10  A    between atoms: O_20  and  C_19 
REMARK   11  A    between atoms: N_22  and  C_21 
ROOT
ATOM      1  C   UNL d   1      -0.003   2.704   1.294  0.00  0.00     0.296 C 
ATOM      2  O   UNL d   1      -1.324   2.914   1.790  0.00  0.00    -0.349 OA
ATOM      3  C   UNL d   1      -1.628   4.268   2.156  0.00  0.00     0.183 C 
ATOM      4  C   UNL d   1      -0.381   5.050   2.610  0.00  0.00     0.179 C 
ATOM      5  C   UNL d   1       0.581   4.125   3.349  0.00  0.00     0.187 C 
ATOM      6  C   UNL d   1       1.018   2.959   2.437  0.00  0.00     0.303 C 
ENDROOT
BRANCH   1   7
ATOM      7  O   UNL d   1       0.235   1.411   0.721  0.00  0.00    -0.349 OA
BRANCH   7   8
ATOM      8  C   UNL d   1      -0.905   0.671   0.263  0.00  0.00     0.189 C 
ATOM      9  C   UNL d   1      -0.703  -0.804   0.662  0.00  0.00     0.251 C 
ATOM     10  C   UNL d   1      -1.859  -1.665   0.129  0.00  0.00     0.076 C 
ATOM     11  C   UNL d   1      -1.964  -1.548  -1.397  0.00  0.00     0.251 C 
ATOM     12  C   UNL d   1      -2.104  -0.083  -1.839  0.00  0.00     0.182 C 
ATOM     13  C   UNL d   1      -0.997   0.793  -1.259  0.00  0.00     0.180 C 
BRANCH   9  14
ATOM     14  N   UNL d   1      -0.625  -0.913   2.123  0.00  0.00     0.085 N 
ATOM     15  H   UNL d   1      -0.369  -1.872   2.367  0.00  0.00     0.313 HD
ATOM     16  H   UNL d   1       0.135  -0.330   2.461  0.00  0.00     0.313 HD
ENDBRANCH   9  14
BRANCH  11  17
ATOM     17  N   UNL d   1      -3.096  -2.352  -1.858  0.00  0.00     0.085 N 
ATOM     18  H   UNL d   1      -3.980  -1.877  -1.678  0.00  0.00     0.313 HD
ATOM     19  H   UNL d   1      -3.036  -2.451  -2.875  0.00  0.00     0.313 HD
ENDBRANCH  11  17
BRANCH  12  20
ATOM     20  O   UNL d   1      -1.989  -0.012  -3.266  0.00  0.00    -0.391 OA
ATOM     21  H   UNL d   1      -1.788   0.921  -3.496  0.00  0.00     0.210 HD
ENDBRANCH  12  20
BRANCH  13  22
ATOM     22  O   UNL d   1      -1.294   2.147  -1.599  0.00  0.00    -0.390 OA
ATOM     23  H   UNL d   1      -0.449   2.590  -1.784  0.00  0.00     0.210 HD
ENDBRANCH  13  22
ENDBRANCH   7   8
ENDBRANCH   1   7
BRANCH   6  24
ATOM     24  N   UNL d   1       1.188   1.746   3.235  0.00  0.00     0.090 N 
ATOM     25  H   UNL d   1       1.898   1.885   3.953  0.00  0.00     0.313 HD
ATOM     26  H   UNL d   1       0.322   1.520   3.719  0.00  0.00     0.313 HD
ENDBRANCH   6  24
BRANCH   3  27
ATOM     27  C   UNL d   1      -2.405   4.968   1.031  0.00  0.00     0.301 C 
BRANCH  27  28
ATOM     28  N   UNL d   1      -1.556   5.344  -0.088  0.00  0.00     0.080 N 
ATOM     29  H   UNL d   1      -1.569   4.617  -0.800  0.00  0.00     0.312 HD
ATOM     30  H   UNL d   1      -1.897   6.201  -0.521  0.00  0.00     0.312 HD
ENDBRANCH  27  28
ENDBRANCH   3  27
BRANCH   5  31
ATOM     31  O   UNL d   1       1.728   4.872   3.747  0.00  0.00    -0.391 OA
ATOM     32  H   UNL d   1       1.517   5.282   4.604  0.00  0.00     0.210 HD
ENDBRANCH   5  31
BRANCH   4  33
ATOM     33  O   UNL d   1      -0.788   6.150   3.429  0.00  0.00    -0.390 OA
ATOM     34  H   UNL d   1      -1.191   5.791   4.237  0.00  0.00     0.210 HD
ENDBRANCH   4  33
TORSDOF 11
