@<TRIPOS>MOLECULE
1J8G_SPM_A_62
 40 39 0 0 0
SMALL
GASTEIGER

@<TRIPOS>ATOM
      1 N          -4.8937    1.9104    2.0546 N.3     1  UNL1       -0.3299
      2 C          -3.6374    1.3297    1.5998 C.3     1  UNL1       -0.0058
      3 C          -2.4287    2.2127    1.9203 C.3     1  UNL1       -0.0281
      4 C          -2.4864    3.5683    1.2126 C.3     1  UNL1       -0.0030
      5 N          -1.1382    4.1190    1.0829 N.3     1  UNL1       -0.3159
      6 C          -1.0568    5.1450    0.0425 C.3     1  UNL1       -0.0041
      7 C           0.0370    4.8007   -0.9716 C.3     1  UNL1       -0.0393
      8 C          -0.2619    3.5743   -1.8444 C.3     1  UNL1       -0.0393
      9 C          -1.3356    3.8053   -2.9177 C.3     1  UNL1       -0.0041
     10 N          -2.6517    3.3665   -2.4556 N.3     1  UNL1       -0.3159
     11 C          -3.6757    3.4675   -3.4967 C.3     1  UNL1       -0.0030
     12 C          -4.0391    2.1033   -4.1045 C.3     1  UNL1       -0.0281
     13 C          -5.3312    1.5084   -3.5388 C.3     1  UNL1       -0.0058
     14 N          -5.1290    0.9839   -2.1941 N.3     1  UNL1       -0.3299
     15 H          -4.7450    2.4436    2.9104 H       1  UNL1        0.1182
     16 H          -5.2360    2.5750    1.3616 H       1  UNL1        0.1182
     17 H          -3.6915    1.1404    0.5225 H       1  UNL1        0.0422
     18 H          -3.5094    0.3556    2.0826 H       1  UNL1        0.0422
     19 H          -1.5265    1.6656    1.6182 H       1  UNL1        0.0290
     20 H          -2.3552    2.3613    3.0050 H       1  UNL1        0.0290
     21 H          -3.1068    4.2646    1.7877 H       1  UNL1        0.0424
     22 H          -2.9514    3.4438    0.2314 H       1  UNL1        0.0424
     23 H          -0.8471    4.5153    1.9764 H       1  UNL1        0.1219
     24 H          -0.8022    6.1019    0.5155 H       1  UNL1        0.0424
     25 H          -2.0094    5.3142   -0.4717 H       1  UNL1        0.0424
     26 H           0.9836    4.6298   -0.4407 H       1  UNL1        0.0278
     27 H           0.2131    5.6734   -1.6122 H       1  UNL1        0.0278
     28 H           0.6694    3.3059   -2.3599 H       1  UNL1        0.0278
     29 H          -0.5055    2.7073   -1.2170 H       1  UNL1        0.0278
     30 H          -1.3727    4.8657   -3.1975 H       1  UNL1        0.0424
     31 H          -1.0578    3.2425   -3.8174 H       1  UNL1        0.0424
     32 H          -2.6016    2.4148   -2.0948 H       1  UNL1        0.1219
     33 H          -4.5616    3.9346   -3.0511 H       1  UNL1        0.0424
     34 H          -3.3602    4.1429   -4.3016 H       1  UNL1        0.0424
     35 H          -4.1786    2.2412   -5.1849 H       1  UNL1        0.0290
     36 H          -3.2138    1.3861   -4.0064 H       1  UNL1        0.0290
     37 H          -5.6603    0.6902   -4.1890 H       1  UNL1        0.0422
     38 H          -6.1335    2.2549   -3.5341 H       1  UNL1        0.0422
     39 H          -5.9699    0.4882   -1.8995 H       1  UNL1        0.1182
     40 H          -5.0212    1.7607   -1.5428 H       1  UNL1        0.1182
@<TRIPOS>BOND
     1     2     1    1
     2     3     2    1
     3     4     3    1
     4     5     4    1
     5     6     5    1
     6     7     6    1
     7     8     7    1
     8     9     8    1
     9    10     9    1
    10    11    10    1
    11    12    11    1
    12    13    12    1
    13    14    13    1
    14     1    15    1
    15     1    16    1
    16     2    17    1
    17     2    18    1
    18     3    19    1
    19     3    20    1
    20     4    21    1
    21     4    22    1
    22     5    23    1
    23     6    24    1
    24     6    25    1
    25     7    26    1
    26     7    27    1
    27     8    28    1
    28     8    29    1
    29     9    30    1
    30     9    31    1
    31    10    32    1
    32    11    33    1
    33    11    34    1
    34    12    35    1
    35    12    36    1
    36    13    37    1
    37    13    38    1
    38    14    39    1
    39    14    40    1
