REMARK  13 active torsions:
REMARK  status: ('A' for Active; 'I' for Inactive)
REMARK    1  A    between atoms: C_2  and  N_1 
REMARK    2  A    between atoms: C_3  and  C_2 
REMARK    3  A    between atoms: C_4  and  C_3 
REMARK    4  A    between atoms: N_5  and  C_4 
REMARK    5  A    between atoms: C_6  and  N_5 
REMARK    6  A    between atoms: C_7  and  C_6 
REMARK    7  A    between atoms: C_8  and  C_7 
REMARK    8  A    between atoms: C_9  and  C_8 
REMARK    9  A    between atoms: N_10  and  C_9 
REMARK   10  A    between atoms: C_11  and  N_10 
REMARK   11  A    between atoms: C_12  and  C_11 
REMARK   12  A    between atoms: C_13  and  C_12 
REMARK   13  A    between atoms: N_14  and  C_13 
ROOT
ATOM      1  C   UNL d   1       0.037   4.801  -0.972  0.00  0.00     0.032 C 
ENDROOT
BRANCH   1   2
ATOM      2  C   UNL d   1      -1.057   5.145   0.043  0.00  0.00     0.269 C 
BRANCH   2   3
ATOM      3  N   UNL d   1      -1.138   4.119   1.083  0.00  0.00     0.083 N 
ATOM      4  H   UNL d   1      -0.847   4.515   1.976  0.00  0.00     0.315 HD
BRANCH   3   5
ATOM      5  C   UNL d   1      -2.486   3.568   1.213  0.00  0.00     0.271 C 
BRANCH   5   6
ATOM      6  C   UNL d   1      -2.429   2.213   1.920  0.00  0.00     0.059 C 
BRANCH   6   7
ATOM      7  C   UNL d   1      -3.637   1.330   1.600  0.00  0.00     0.268 C 
BRANCH   7   8
ATOM      8  N   UNL d   1      -4.894   1.910   2.055  0.00  0.00     0.078 N 
ATOM      9  H   UNL d   1      -4.745   2.444   2.910  0.00  0.00     0.312 HD
ATOM     10  H   UNL d   1      -5.236   2.575   1.362  0.00  0.00     0.312 HD
ENDBRANCH   7   8
ENDBRANCH   6   7
ENDBRANCH   5   6
ENDBRANCH   3   5
ENDBRANCH   2   3
ENDBRANCH   1   2
BRANCH   1  11
ATOM     11  C   UNL d   1      -0.262   3.574  -1.844  0.00  0.00     0.032 C 
BRANCH  11  12
ATOM     12  C   UNL d   1      -1.336   3.805  -2.918  0.00  0.00     0.269 C 
BRANCH  12  13
ATOM     13  N   UNL d   1      -2.652   3.366  -2.456  0.00  0.00     0.083 N 
ATOM     14  H   UNL d   1      -2.602   2.415  -2.095  0.00  0.00     0.315 HD
BRANCH  13  15
ATOM     15  C   UNL d   1      -3.676   3.467  -3.497  0.00  0.00     0.271 C 
BRANCH  15  16
ATOM     16  C   UNL d   1      -4.039   2.103  -4.104  0.00  0.00     0.059 C 
BRANCH  16  17
ATOM     17  C   UNL d   1      -5.331   1.508  -3.539  0.00  0.00     0.268 C 
BRANCH  17  18
ATOM     18  N   UNL d   1      -5.129   0.984  -2.194  0.00  0.00     0.078 N 
ATOM     19  H   UNL d   1      -5.970   0.488  -1.899  0.00  0.00     0.312 HD
ATOM     20  H   UNL d   1      -5.021   1.761  -1.543  0.00  0.00     0.312 HD
ENDBRANCH  17  18
ENDBRANCH  16  17
ENDBRANCH  15  16
ENDBRANCH  13  15
ENDBRANCH  12  13
ENDBRANCH  11  12
ENDBRANCH   1  11
TORSDOF 13
