1J8G_SPM_A_62
  1228              3D

 40 39  0  0  0  0  0  0  0  0999 V2000
   -4.8937    1.9104    2.0546 N   0  0  0  0  0  0  0  0  0  0  0  0
   -3.6374    1.3297    1.5998 C   0  0  0  0  0  0  0  0  0  0  0  0
   -2.4287    2.2127    1.9203 C   0  0  0  0  0  0  0  0  0  0  0  0
   -2.4864    3.5683    1.2126 C   0  0  0  0  0  0  0  0  0  0  0  0
   -1.1382    4.1190    1.0829 N   0  0  0  0  0  0  0  0  0  0  0  0
   -1.0568    5.1450    0.0425 C   0  0  0  0  0  0  0  0  0  0  0  0
    0.0370    4.8007   -0.9716 C   0  0  0  0  0  0  0  0  0  0  0  0
   -0.2619    3.5743   -1.8444 C   0  0  0  0  0  0  0  0  0  0  0  0
   -1.3356    3.8053   -2.9177 C   0  0  0  0  0  0  0  0  0  0  0  0
   -2.6517    3.3665   -2.4556 N   0  0  0  0  0  0  0  0  0  0  0  0
   -3.6757    3.4675   -3.4967 C   0  0  0  0  0  0  0  0  0  0  0  0
   -4.0391    2.1033   -4.1045 C   0  0  0  0  0  0  0  0  0  0  0  0
   -5.3312    1.5084   -3.5388 C   0  0  0  0  0  0  0  0  0  0  0  0
   -5.1290    0.9839   -2.1941 N   0  0  0  0  0  0  0  0  0  0  0  0
   -4.7450    2.4436    2.9104 H   0  0  0  0  0  0  0  0  0  0  0  0
   -5.2360    2.5750    1.3616 H   0  0  0  0  0  0  0  0  0  0  0  0
   -3.6915    1.1404    0.5225 H   0  0  0  0  0  0  0  0  0  0  0  0
   -3.5094    0.3556    2.0826 H   0  0  0  0  0  0  0  0  0  0  0  0
   -1.5265    1.6656    1.6182 H   0  0  0  0  0  0  0  0  0  0  0  0
   -2.3552    2.3613    3.0050 H   0  0  0  0  0  0  0  0  0  0  0  0
   -3.1068    4.2646    1.7877 H   0  0  0  0  0  0  0  0  0  0  0  0
   -2.9514    3.4438    0.2314 H   0  0  0  0  0  0  0  0  0  0  0  0
   -0.8471    4.5153    1.9764 H   0  0  0  0  0  0  0  0  0  0  0  0
   -0.8022    6.1019    0.5155 H   0  0  0  0  0  0  0  0  0  0  0  0
   -2.0094    5.3142   -0.4717 H   0  0  0  0  0  0  0  0  0  0  0  0
    0.9836    4.6298   -0.4407 H   0  0  0  0  0  0  0  0  0  0  0  0
    0.2131    5.6734   -1.6122 H   0  0  0  0  0  0  0  0  0  0  0  0
    0.6694    3.3059   -2.3599 H   0  0  0  0  0  0  0  0  0  0  0  0
   -0.5055    2.7073   -1.2170 H   0  0  0  0  0  0  0  0  0  0  0  0
   -1.3727    4.8657   -3.1975 H   0  0  0  0  0  0  0  0  0  0  0  0
   -1.0578    3.2425   -3.8174 H   0  0  0  0  0  0  0  0  0  0  0  0
   -2.6016    2.4148   -2.0948 H   0  0  0  0  0  0  0  0  0  0  0  0
   -4.5616    3.9346   -3.0511 H   0  0  0  0  0  0  0  0  0  0  0  0
   -3.3602    4.1429   -4.3016 H   0  0  0  0  0  0  0  0  0  0  0  0
   -4.1786    2.2412   -5.1849 H   0  0  0  0  0  0  0  0  0  0  0  0
   -3.2138    1.3861   -4.0064 H   0  0  0  0  0  0  0  0  0  0  0  0
   -5.6603    0.6902   -4.1890 H   0  0  0  0  0  0  0  0  0  0  0  0
   -6.1335    2.2549   -3.5341 H   0  0  0  0  0  0  0  0  0  0  0  0
   -5.9699    0.4882   -1.8995 H   0  0  0  0  0  0  0  0  0  0  0  0
   -5.0212    1.7607   -1.5428 H   0  0  0  0  0  0  0  0  0  0  0  0
  2  1  1  0  0  0  0
  3  2  1  0  0  0  0
  4  3  1  0  0  0  0
  5  4  1  0  0  0  0
  6  5  1  0  0  0  0
  7  6  1  0  0  0  0
  8  7  1  0  0  0  0
  9  8  1  0  0  0  0
 10  9  1  0  0  0  0
 11 10  1  0  0  0  0
 12 11  1  0  0  0  0
 13 12  1  0  0  0  0
 14 13  1  0  0  0  0
  1 15  1  0  0  0  0
  1 16  1  0  0  0  0
  2 17  1  0  0  0  0
  2 18  1  0  0  0  0
  3 19  1  0  0  0  0
  3 20  1  0  0  0  0
  4 21  1  0  0  0  0
  4 22  1  0  0  0  0
  5 23  1  0  0  0  0
  6 24  1  0  0  0  0
  6 25  1  0  0  0  0
  7 26  1  0  0  0  0
  7 27  1  0  0  0  0
  8 28  1  0  0  0  0
  8 29  1  0  0  0  0
  9 30  1  0  0  0  0
  9 31  1  0  0  0  0
 10 32  1  0  0  0  0
 11 33  1  0  0  0  0
 11 34  1  0  0  0  0
 12 35  1  0  0  0  0
 12 36  1  0  0  0  0
 13 37  1  0  0  0  0
 13 38  1  0  0  0  0
 14 39  1  0  0  0  0
 14 40  1  0  0  0  0
M  END
>  <energy>
3.6071784101710236

$$$$
