REMARK  12 active torsions:
REMARK  status: ('A' for Active; 'I' for Inactive)
REMARK    1  A    between atoms: O_19  and  C_1 
REMARK    2  A    between atoms: C_9  and  C_2 
REMARK    3  A    between atoms: O_7  and  C_4 
REMARK    4  A    between atoms: N_10  and  C_9 
REMARK    5  A    between atoms: C_11  and  N_10 
REMARK    6  A    between atoms: C_12  and  C_11 
REMARK    7  A    between atoms: C_13  and  C_12 
REMARK    8  A    between atoms: C_14  and  C_13 
REMARK    9  A    between atoms: N_15  and  C_14 
REMARK       I    between atoms: C_16  and  N_15 
REMARK       I    between atoms: N_18  and  C_16 
REMARK   10  A    between atoms: C_20  and  O_19 
REMARK   11  A    between atoms: C_21  and  C_20 
REMARK   12  A    between atoms: N_22  and  C_21 
REMARK       I    between atoms: C_23  and  N_22 
REMARK       I    between atoms: N_25  and  C_23 
ROOT
ATOM      1  C   UNL d   1       2.700  -0.474   0.339  0.00  0.00     0.077 A 
ATOM      2  C   UNL d   1       1.846   0.218   1.208  0.00  0.00     0.006 A 
ATOM      3  C   UNL d   1       1.706   1.603   1.028  0.00  0.00     0.048 A 
ATOM      4  C   UNL d   1       2.362   2.266  -0.010  0.00  0.00     0.069 A 
ATOM      5  C   UNL d   1       3.144   1.552  -0.912  0.00  0.00     0.039 A 
ATOM      6  C   UNL d   1       3.293   0.176  -0.751  0.00  0.00     0.040 A 
ENDROOT
BRANCH   2   7
ATOM      7  C   UNL d   1       1.157  -0.401   2.408  0.00  0.00     0.311 C 
BRANCH   7   8
ATOM      8  N   UNL d   1      -0.304  -0.271   2.327  0.00  0.00     0.087 N 
ATOM      9  H   UNL d   1      -0.578   0.339   1.557  0.00  0.00     0.316 HD
BRANCH   8  10
ATOM     10  C   UNL d   1      -0.942   0.206   3.554  0.00  0.00     0.270 C 
BRANCH  10  11
ATOM     11  C   UNL d   1      -1.943  -0.853   4.042  0.00  0.00     0.031 C 
BRANCH  11  12
ATOM     12  C   UNL d   1      -3.344  -0.291   4.328  0.00  0.00     0.021 C 
BRANCH  12  13
ATOM     13  C   UNL d   1      -3.748  -0.331   5.802  0.00  0.00     0.122 C 
BRANCH  13  14
ATOM     14  N   UNL d   1      -2.882   0.525   6.603  0.00  0.00    -0.366 N 
ATOM     15  C   UNL d   1      -2.052   0.005   7.612  0.00  0.00     0.165 C 
ATOM     16  N   UNL d   1      -2.530  -0.757   8.562  0.00  0.00    -0.274 NA
ATOM     17  N   UNL d   1      -0.735  -0.091   7.202  0.00  0.00    -0.273 NA
ATOM     18  H   UNL d   1      -3.394  -0.303   8.908  0.00  0.00     0.189 HD
ATOM     19  H   UNL d   1      -0.271  -0.952   7.487  0.00  0.00     0.127 HD
ATOM     20  H   UNL d   1      -0.150   0.696   7.472  0.00  0.00     0.127 HD
ATOM     21  H   UNL d   1      -3.332   1.401   6.853  0.00  0.00     0.162 HD
ENDBRANCH  13  14
ENDBRANCH  12  13
ENDBRANCH  11  12
ENDBRANCH  10  11
ENDBRANCH   8  10
ENDBRANCH   7   8
ENDBRANCH   2   7
BRANCH   1  22
ATOM     22  O   UNL d   1       2.974  -1.806   0.521  0.00  0.00    -0.349 OA
BRANCH  22  23
ATOM     23  C   UNL d   1       4.260  -1.973   1.145  0.00  0.00     0.195 C 
BRANCH  23  24
ATOM     24  C   UNL d   1       5.212  -2.690   0.183  0.00  0.00     0.149 C 
BRANCH  24  25
ATOM     25  N   UNL d   1       5.927  -3.749   0.888  0.00  0.00    -0.364 N 
ATOM     26  C   UNL d   1       5.524  -5.094   0.944  0.00  0.00     0.165 C 
ATOM     27  N   UNL d   1       5.977  -5.860   1.910  0.00  0.00    -0.274 NA
ATOM     28  N   UNL d   1       4.303  -5.361   0.356  0.00  0.00    -0.273 NA
ATOM     29  H   UNL d   1       6.998  -5.709   1.981  0.00  0.00     0.189 HD
ATOM     30  H   UNL d   1       4.333  -5.400  -0.661  0.00  0.00     0.127 HD
ATOM     31  H   UNL d   1       3.545  -4.742   0.638  0.00  0.00     0.127 HD
ATOM     32  H   UNL d   1       6.434  -3.415   1.704  0.00  0.00     0.162 HD
ENDBRANCH  24  25
ENDBRANCH  23  24
ENDBRANCH  22  23
ENDBRANCH   1  22
BRANCH   4  33
ATOM     33  O   UNL d   1       2.266   3.628  -0.143  0.00  0.00    -0.356 OA
ATOM     34  C   UNL d   1       2.625   4.314   1.059  0.00  0.00     0.210 C 
ENDBRANCH   4  33
TORSDOF 12
