@<TRIPOS>MOLECULE
ligand.pdb
 54 54 0 0 0
SMALL
GASTEIGER

@<TRIPOS>ATOM
      1 C           2.7001   -0.4741    0.3390 C.ar    1  UNL1        0.1253
      2 C           1.8461    0.2184    1.2082 C.ar    1  UNL1        0.0115
      3 C           1.7062    1.6025    1.0283 C.ar    1  UNL1       -0.0121
      4 C           2.3621    2.2658   -0.0096 C.ar    1  UNL1        0.1206
      5 C           3.1443    1.5524   -0.9125 C.ar    1  UNL1       -0.0165
      6 C           3.2934    0.1756   -0.7512 C.ar    1  UNL1       -0.0162
      7 O           2.2662    3.6278   -0.1432 O.3     1  UNL1       -0.4951
      8 C           2.6247    4.3145    1.0590 C.3     1  UNL1        0.0788
      9 C           1.1571   -0.4005    2.4078 C.3     1  UNL1        0.0248
     10 N          -0.3040   -0.2709    2.3272 N.3     1  UNL1       -0.3119
     11 C          -0.9421    0.2058    3.5544 C.3     1  UNL1       -0.0037
     12 C          -1.9429   -0.8525    4.0419 C.3     1  UNL1       -0.0376
     13 C          -3.3444   -0.2906    4.3282 C.3     1  UNL1       -0.0211
     14 C          -3.7480   -0.3309    5.8020 C.3     1  UNL1        0.0647
     15 N          -2.8818    0.5248    6.6032 N.pl3   1  UNL1       -0.2761
     16 C          -2.0519    0.0053    7.6125 C.cat   1  UNL1        0.3762
     17 N          -2.5304   -0.7574    8.5620 N.pl3   1  UNL1       -0.1298
     18 N          -0.7348   -0.0909    7.2018 N.pl3   1  UNL1       -0.2893
     19 O           2.9738   -1.8057    0.5213 O.3     1  UNL1       -0.4885
     20 C           4.2597   -1.9731    1.1452 C.3     1  UNL1        0.1199
     21 C           5.2115   -2.6900    0.1835 C.3     1  UNL1        0.0986
     22 N           5.9267   -3.7489    0.8880 N.pl3   1  UNL1       -0.2728
     23 C           5.5237   -5.0936    0.9443 C.cat   1  UNL1        0.3763
     24 N           5.9771   -5.8601    1.9104 N.pl3   1  UNL1       -0.1298
     25 N           4.3028   -5.3611    0.3560 N.pl3   1  UNL1       -0.2893
     26 H           0.9249    2.1256    1.5784 H       1  UNL1        0.0658
     27 H           3.6428    2.0528   -1.7375 H       1  UNL1        0.0655
     28 H           3.9065   -0.3844   -1.4545 H       1  UNL1        0.0655
     29 H           3.5994    3.9902    1.4391 H       1  UNL1        0.0660
     30 H           1.8540    4.1831    1.8268 H       1  UNL1        0.0660
     31 H           2.6715    5.3847    0.8383 H       1  UNL1        0.0660
     32 H           1.3857   -1.4681    2.4736 H       1  UNL1        0.0475
     33 H           1.5776    0.0643    3.3091 H       1  UNL1        0.0475
     34 H          -0.5783    0.3385    1.5570 H       1  UNL1        0.1222
     35 H          -0.2240    0.4257    4.3528 H       1  UNL1        0.0424
     36 H          -1.4379    1.1593    3.3355 H       1  UNL1        0.0424
     37 H          -1.5294   -1.3432    4.9298 H       1  UNL1        0.0278
     38 H          -2.0454   -1.6613    3.3050 H       1  UNL1        0.0278
     39 H          -4.0675   -0.9040    3.7752 H       1  UNL1        0.0296
     40 H          -3.4687    0.7267    3.9397 H       1  UNL1        0.0296
     41 H          -3.7452   -1.3612    6.1677 H       1  UNL1        0.0655
     42 H          -4.7792    0.0366    5.8969 H       1  UNL1        0.0655
     43 H          -3.3321    1.4009    6.8534 H       1  UNL1        0.2579
     44 H          -3.3944   -0.3032    8.9077 H       1  UNL1        0.3062
     45 H          -0.2709   -0.9519    7.4865 H       1  UNL1        0.2546
     46 H          -0.1500    0.6959    7.4722 H       1  UNL1        0.2546
     47 H           4.0923   -2.5579    2.0572 H       1  UNL1        0.0728
     48 H           4.7096   -1.0214    1.4614 H       1  UNL1        0.0728
     49 H           5.9501   -1.9767   -0.2011 H       1  UNL1        0.0689
     50 H           4.6911   -3.0753   -0.7005 H       1  UNL1        0.0689
     51 H           6.4341   -3.4149    1.7040 H       1  UNL1        0.2580
     52 H           6.9978   -5.7086    1.9810 H       1  UNL1        0.3062
     53 H           4.3331   -5.3996   -0.6607 H       1  UNL1        0.2546
     54 H           3.5447   -4.7424    0.6383 H       1  UNL1        0.2546
@<TRIPOS>BOND
     1     2     1   ar
     2     3     2   ar
     3     4     3   ar
     4     5     4   ar
     5     6     5   ar
     6     6     1   ar
     7     7     4    1
     8     8     7    1
     9     9     2    1
    10    10     9    1
    11    11    10    1
    12    12    11    1
    13    13    12    1
    14    14    13    1
    15    15    14    1
    16    16    15    1
    17    17    16    2
    18    18    16    1
    19    19     1    1
    20    20    19    1
    21    21    20    1
    22    22    21    1
    23    23    22    1
    24    24    23    2
    25    25    23    1
    26     3    26    1
    27     5    27    1
    28     6    28    1
    29     8    29    1
    30     8    30    1
    31     8    31    1
    32     9    32    1
    33     9    33    1
    34    10    34    1
    35    11    35    1
    36    11    36    1
    37    12    37    1
    38    12    38    1
    39    13    39    1
    40    13    40    1
    41    14    41    1
    42    14    42    1
    43    15    43    1
    44    17    44    1
    45    18    45    1
    46    18    46    1
    47    20    47    1
    48    20    48    1
    49    21    49    1
    50    21    50    1
    51    22    51    1
    52    24    52    1
    53    25    53    1
    54    25    54    1
