REMARK  6 active torsions:
REMARK  status: ('A' for Active; 'I' for Inactive)
REMARK    1  A    between atoms: C_1  and  O_2 
REMARK    2  A    between atoms: C_16  and  O_2 
REMARK    3  A    between atoms: C_7  and  C_9 
REMARK    4  A    between atoms: C_19  and  O_20 
REMARK    5  A    between atoms: C_21  and  O_20 
REMARK    6  A    between atoms: C_24  and  N_25 
ROOT
ATOM      1  C   UNL d   1      -1.402 -11.351  31.889  0.00  0.00     0.334 C 
ATOM      2  N   UNL d   1      -1.411 -12.321  32.940  0.00  0.00     0.619 N 
ATOM      3  C   UNL d   1      -0.254 -11.683  30.882  0.00  0.00     0.083 C 
ATOM      4  C   UNL d   1      -0.231 -10.616  29.727  0.00  0.00     0.334 C 
ATOM      5  N   UNL d   1       0.849 -10.924  28.776  0.00  0.00     0.619 N 
ATOM      6  C   UNL d   1      -0.037  -9.177  30.342  0.00  0.00     0.188 C 
ATOM      7  C   UNL d   1      -1.208  -8.873  31.354  0.00  0.00     0.210 C 
ATOM      8  O   UNL d   1      -1.054  -7.575  31.919  0.00  0.00    -0.218 OA
ATOM      9  C   UNL d   1      -1.216  -9.948  32.497  0.00  0.00     0.188 C 
ENDROOT
BRANCH   9  10
ATOM     10  O   UNL d   1      -2.282  -9.661  33.394  0.00  0.00    -0.327 OA
BRANCH  10  11
ATOM     11  C   UNL d   1      -2.178  -9.841  34.838  0.00  0.00     0.269 C 
ATOM     12  C   UNL d   1      -3.623 -10.040  35.346  0.00  0.00     0.232 C 
ATOM     13  O   UNL d   1      -4.176 -11.175  34.718  0.00  0.00    -0.216 OA
ATOM     14  C   UNL d   1      -4.442  -8.726  35.015  0.00  0.00     0.164 C 
ATOM     15  C   UNL d   1      -3.764  -7.446  35.740  0.00  0.00     0.177 C 
ATOM     16  O   UNL d   1      -3.785  -7.581  37.146  0.00  0.00    -0.221 OA
ATOM     17  C   UNL d   1      -2.272  -7.340  35.297  0.00  0.00     0.177 C 
ATOM     18  C   UNL d   1      -4.432  -6.084  35.507  0.00  0.00     0.038 C 
ATOM     19  O   UNL d   1      -1.567  -8.650  35.496  0.00  0.00    -0.326 OA
BRANCH  14  20
ATOM     20  N   UNL d   1      -5.876  -8.853  35.435  0.00  0.00    -0.290 NA
ATOM     21  C   UNL d   1      -6.770  -9.616  34.548  0.00  0.00     0.146 C 
ENDBRANCH  14  20
ENDBRANCH  10  11
ENDBRANCH   9  10
BRANCH   6  22
ATOM     22  O   UNL d   1       0.006  -8.231  29.322  0.00  0.00    -0.327 OA
BRANCH  22  23
ATOM     23  C   UNL d   1       0.932  -7.120  29.442  0.00  0.00     0.274 C 
ATOM     24  C   UNL d   1       0.327  -5.869  28.796  0.00  0.00     0.357 C 
ATOM     25  N   UNL d   1      -0.937  -5.604  29.411  0.00  0.00     0.621 N 
ATOM     26  C   UNL d   1       0.193  -6.064  27.247  0.00  0.00     0.047 C 
ATOM     27  C   UNL d   1       1.620  -6.317  26.667  0.00  0.00     0.034 C 
ATOM     28  C   UNL d   1       2.235  -7.603  27.376  0.00  0.00     0.157 C 
ATOM     29  O   UNL d   1       2.241  -7.483  28.833  0.00  0.00    -0.330 OA
BRANCH  28  30
ATOM     30  C   UNL d   1       3.617  -7.974  26.892  0.00  0.00     0.368 C 
ATOM     31  N   UNL d   1       4.559  -8.059  27.977  0.00  0.00     0.621 N 
ENDBRANCH  28  30
ENDBRANCH  22  23
ENDBRANCH   6  22
TORSDOF 6
