2ET3_LLL_A_50
 OpenBabel10091713573D
Coordinates from PDB:2ET3:A:50 Model:1 without hydrogens
 31 33  0  0  0  0  0  0  0  0999 V2000
    0.9320   -7.1200   29.4420 C   0  0  2  0  0  0  0  0  0  0  0  0
    0.0060   -8.2310   29.3220 O   0  0  0  0  0  0  0  0  0  0  0  0
    0.3270   -5.8690   28.7960 C   0  0  2  0  0  0  0  0  0  0  0  0
   -0.9370   -5.6040   29.4110 N   0  0  0  0  0  0  0  0  0  0  0  0
    0.1930   -6.0640   27.2470 C   0  0  0  0  0  0  0  0  0  0  0  0
    1.6200   -6.3170   26.6670 C   0  0  0  0  0  0  0  0  0  0  0  0
    2.2350   -7.6030   27.3760 C   0  0  2  0  0  0  0  0  0  0  0  0
    2.2410   -7.4830   28.8330 O   0  0  0  0  0  0  0  0  0  0  0  0
    3.6170   -7.9740   26.8920 C   0  0  0  0  0  0  0  0  0  0  0  0
    4.5590   -8.0590   27.9770 N   0  0  0  0  0  0  0  0  0  0  0  0
   -1.4020  -11.3510   31.8890 C   0  0  2  0  0  0  0  0  0  0  0  0
   -1.4110  -12.3210   32.9400 N   0  0  0  0  0  0  0  0  0  0  0  0
   -0.2540  -11.6830   30.8820 C   0  0  0  0  0  0  0  0  0  0  0  0
   -0.2310  -10.6160   29.7270 C   0  0  2  0  0  0  0  0  0  0  0  0
    0.8490  -10.9240   28.7760 N   0  0  0  0  0  0  0  0  0  0  0  0
   -0.0370   -9.1770   30.3420 C   0  0  2  0  0  0  0  0  0  0  0  0
   -1.2080   -8.8730   31.3540 C   0  0  2  0  0  0  0  0  0  0  0  0
   -1.0540   -7.5750   31.9190 O   0  0  0  0  0  0  0  0  0  0  0  0
   -1.2160   -9.9480   32.4970 C   0  0  1  0  0  0  0  0  0  0  0  0
   -2.2820   -9.6610   33.3940 O   0  0  0  0  0  0  0  0  0  0  0  0
   -2.1780   -9.8410   34.8380 C   0  0  2  0  0  0  0  0  0  0  0  0
   -3.6230  -10.0400   35.3460 C   0  0  2  0  0  0  0  0  0  0  0  0
   -4.1760  -11.1750   34.7180 O   0  0  0  0  0  0  0  0  0  0  0  0
   -4.4420   -8.7260   35.0150 C   0  0  1  0  0  0  0  0  0  0  0  0
   -5.8760   -8.8530   35.4350 N   0  0  0  0  0  0  0  0  0  0  0  0
   -3.7640   -7.4460   35.7400 C   0  0  1  0  0  0  0  0  0  0  0  0
   -3.7850   -7.5810   37.1460 O   0  0  0  0  0  0  0  0  0  0  0  0
   -2.2720   -7.3400   35.2970 C   0  0  0  0  0  0  0  0  0  0  0  0
   -1.5670   -8.6500   35.4960 O   0  0  0  0  0  0  0  0  0  0  0  0
   -4.4320   -6.0840   35.5070 C   0  0  0  0  0  0  0  0  0  0  0  0
   -6.7700   -9.6160   34.5480 C   0  0  0  0  0  0  0  0  0  0  0  0
  1  2  1  6  0  0  0
  1  3  1  0  0  0  0
  1  8  1  0  0  0  0
  3  4  1  1  0  0  0
  3  5  1  0  0  0  0
  5  6  1  0  0  0  0
  6  7  1  0  0  0  0
  7  8  1  0  0  0  0
  7  9  1  6  0  0  0
  9 10  1  0  0  0  0
 11 12  1  1  0  0  0
 11 13  1  0  0  0  0
 11 19  1  0  0  0  0
 13 14  1  0  0  0  0
 14 15  1  6  0  0  0
 14 16  1  0  0  0  0
 16  2  1  6  0  0  0
 16 17  1  0  0  0  0
 17 18  1  1  0  0  0
 17 19  1  0  0  0  0
 19 20  1  1  0  0  0
 21 20  1  6  0  0  0
 21 22  1  0  0  0  0
 21 29  1  0  0  0  0
 22 23  1  6  0  0  0
 22 24  1  0  0  0  0
 24 25  1  1  0  0  0
 24 26  1  0  0  0  0
 25 31  1  0  0  0  0
 26 27  1  0  0  0  0
 26 28  1  0  0  0  0
 26 30  1  6  0  0  0
 28 29  1  0  0  0  0
A    1
C11
A    2
O11
A    3
C21
A    4
N21
A    5
C31
A    6
C41
A    7
C51
A    8
O51
A    9
C61
A   10
N61
A   11
C12
A   12
N12
A   13
C22
A   14
C32
A   15
N32
A   16
C42
A   17
C52
A   18
O52
A   19
C62
A   20
O62
A   21
C13
A   22
C23
A   23
O23
A   24
C33
A   25
N33
A   26
C43
A   27
O43
A   28
C53
A   29
O53
A   30
C83
A   31
C93
M  END
>  <InstanceId>
2ET3_LLL_A_50

>  <ChemCompId>
LLL

>  <PdbId>
2ET3

>  <ChainId>
A

>  <ResidueNumber>
50

>  <InsertionCode>


>  <Model>
1

>  <AltIds>


>  <MissingHeavyAtoms>
0

>  <ObservedFormula>
C19 N5 O7

>  <Name>
(2R,3R,4R,5R)-2-((1S,2S,3R,4S,6R)-4,6-DIAMINO-3-((2R,3R,6S)-3-AMINO-6-(AMINOMETHYL)-TETRAHYDRO-2H-PYRAN-2-YLOXY)-2-HYDROXYCYCLOHEXYLOXY)-5-METHYL-4-(METHYLAMINO)-TETRAHYDRO-2H-PYRAN-3,5-DIOL

>  <SystematicName>
(2R,3R,4R,5R)-2-[(1S,2S,3R,4S,6R)-4,6-diamino-3-[(2R,3R,6S)-3-amino-6-(aminomethyl)oxan-2-yl]oxy-2-hydroxy-cyclohexyl]oxy-5-methyl-4-methylamino-oxane-3,5-diol

>  <Synonyms>
GENTAMICIN C1A

>  <Type>
NON-POLYMER

>  <Formula>
C19 H39 N5 O7

>  <MolecularWeight>
449.542

>  <ModifiedDate>
2011-06-04

>  <Parent>


>  <OneLetterCode>


>  <SubcomponentList>


>  <AmbiguousFlag>
N

>  <InChI>
InChI=1S/C19H39N5O7/c1-19(27)7-28-18(13(26)16(19)24-2)31-15-11(23)5-10(22)14(12(15)25)30-17-9(21)4-3-8(6-20)29-17/h8-18,24-27H,3-7,20-23H2,1-2H3/t8-,9+,10-,11+,12-,13+,14+,15-,16+,17+,18+,19-/m0/s1

>  <InChIKey>
VEGXETMJINRLTH-BOZYPMBZSA-N

>  <SMILES>
C[C@@]1(CO[C@@H]([C@@H]([C@H]1NC)O)O[C@H]2[C@@H](C[C@@H]([C@H]([C@@H]2O)O[C@@H]3[C@@H](CC[C@H](O3)CN)N)N)N)O

$$$$
