2ET3_LLL_A_50
 OpenBabel10091713573D
Coordinates from PDB:2ET3:A:50 Model:1 without hydrogens
 70 72  0  0  1  0  0  0  0  0999 V2000
    0.9320   -7.1200   29.4420 C   0  0  2  0  0  0  0  0  0  0  0  0
    0.0060   -8.2310   29.3220 O   0  0  0  0  0  0  0  0  0  0  0  0
    0.3270   -5.8690   28.7960 C   0  0  2  0  0  0  0  0  0  0  0  0
   -0.9370   -5.6040   29.4110 N   0  0  0  0  0  0  0  0  0  0  0  0
    0.1930   -6.0640   27.2470 C   0  0  0  0  0  0  0  0  0  0  0  0
    1.6200   -6.3170   26.6670 C   0  0  0  0  0  0  0  0  0  0  0  0
    2.2350   -7.6030   27.3760 C   0  0  2  0  0  0  0  0  0  0  0  0
    2.2410   -7.4830   28.8330 O   0  0  0  0  0  0  0  0  0  0  0  0
    3.6170   -7.9740   26.8920 C   0  0  0  0  0  0  0  0  0  0  0  0
    4.5590   -8.0590   27.9770 N   0  0  0  0  0  0  0  0  0  0  0  0
   -1.4020  -11.3510   31.8890 C   0  0  2  0  0  0  0  0  0  0  0  0
   -1.4110  -12.3210   32.9400 N   0  0  0  0  0  0  0  0  0  0  0  0
   -0.2540  -11.6830   30.8820 C   0  0  0  0  0  0  0  0  0  0  0  0
   -0.2310  -10.6160   29.7270 C   0  0  2  0  0  0  0  0  0  0  0  0
    0.8490  -10.9240   28.7760 N   0  0  0  0  0  0  0  0  0  0  0  0
   -0.0370   -9.1770   30.3420 C   0  0  2  0  0  0  0  0  0  0  0  0
   -1.2080   -8.8730   31.3540 C   0  0  2  0  0  0  0  0  0  0  0  0
   -1.0540   -7.5750   31.9190 O   0  0  0  0  0  0  0  0  0  0  0  0
   -1.2160   -9.9480   32.4970 C   0  0  1  0  0  0  0  0  0  0  0  0
   -2.2820   -9.6610   33.3940 O   0  0  0  0  0  0  0  0  0  0  0  0
   -2.1780   -9.8410   34.8380 C   0  0  2  0  0  0  0  0  0  0  0  0
   -3.6230  -10.0400   35.3460 C   0  0  2  0  0  0  0  0  0  0  0  0
   -4.1760  -11.1750   34.7180 O   0  0  0  0  0  0  0  0  0  0  0  0
   -4.4420   -8.7260   35.0150 C   0  0  1  0  0  0  0  0  0  0  0  0
   -5.8760   -8.8530   35.4350 N   0  0  0  0  0  0  0  0  0  0  0  0
   -3.7640   -7.4460   35.7400 C   0  0  1  0  0  0  0  0  0  0  0  0
   -3.7850   -7.5810   37.1460 O   0  0  0  0  0  0  0  0  0  0  0  0
   -2.2720   -7.3400   35.2970 C   0  0  0  0  0  0  0  0  0  0  0  0
   -1.5670   -8.6500   35.4960 O   0  0  0  0  0  0  0  0  0  0  0  0
   -4.4320   -6.0840   35.5070 C   0  0  0  0  0  0  0  0  0  0  0  0
   -6.7700   -9.6160   34.5480 C   0  0  0  0  0  0  0  0  0  0  0  0
    1.1057   -6.9017   30.4750 H   0  0  0  0  0  0  0  0  0  0  0  0
    0.9679   -5.0259   28.9489 H   0  0  0  0  0  0  0  0  0  0  0  0
   -1.5569   -6.4019   29.2715 H   0  0  0  0  0  0  0  0  0  0  0  0
   -1.3524   -4.7730   28.9900 H   0  0  0  0  0  0  0  0  0  0  0  0
   -0.2277   -5.1848   26.8055 H   0  0  0  0  0  0  0  0  0  0  0  0
   -0.4482   -6.8929   27.0310 H   0  0  0  0  0  0  0  0  0  0  0  0
    2.2425   -5.4678   26.8576 H   0  0  0  0  0  0  0  0  0  0  0  0
    1.5628   -6.4741   25.6102 H   0  0  0  0  0  0  0  0  0  0  0  0
    1.5778   -8.3978   27.0911 H   0  0  0  0  0  0  0  0  0  0  0  0
    3.9526   -7.2305   26.1996 H   0  0  0  0  0  0  0  0  0  0  0  0
    3.5590   -8.9355   26.4261 H   0  0  0  0  0  0  0  0  0  0  0  0
    4.6307   -7.1514   28.4369 H   0  0  0  0  0  0  0  0  0  0  0  0
    5.4729   -8.3291   27.6134 H   0  0  0  0  0  0  0  0  0  0  0  0
   -2.3308  -11.3731   31.3582 H   0  0  0  0  0  0  0  0  0  0  0  0
   -0.5215  -12.2907   33.4383 H   0  0  0  0  0  0  0  0  0  0  0  0
   -1.5470  -13.2508   32.5434 H   0  0  0  0  0  0  0  0  0  0  0  0
   -0.4180  -12.6545   30.4645 H   0  0  0  0  0  0  0  0  0  0  0  0
    0.6834  -11.6648   31.3975 H   0  0  0  0  0  0  0  0  0  0  0  0
   -1.1612  -10.6433   29.1989 H   0  0  0  0  0  0  0  0  0  0  0  0
    1.7458  -10.9028   29.2615 H   0  0  0  0  0  0  0  0  0  0  0  0
    0.8510  -10.2309   28.0277 H   0  0  0  0  0  0  0  0  0  0  0  0
    0.8891   -9.1325   30.8761 H   0  0  0  0  0  0  0  0  0  0  0  0
   -2.1362   -8.9100   30.8231 H   0  0  0  0  0  0  0  0  0  0  0  0
   -0.2146   -7.5306   32.4031 H   0  0  0  0  0  0  0  0  0  0  0  0
   -0.2864   -9.9222   33.0263 H   0  0  0  0  0  0  0  0  0  0  0  0
   -1.5496  -10.6755   35.0693 H   0  0  0  0  0  0  0  0  0  0  0  0
   -3.6511  -10.2053   36.4028 H   0  0  0  0  0  0  0  0  0  0  0  0
   -4.1627  -11.0509   33.7561 H   0  0  0  0  0  0  0  0  0  0  0  0
   -4.4189   -8.5852   33.9546 H   0  0  0  0  0  0  0  0  0  0  0  0
   -6.2566   -7.9103   35.5176 H   0  0  0  0  0  0  0  0  0  0  0  0
   -3.3777   -8.4251   37.3959 H   0  0  0  0  0  0  0  0  0  0  0  0
   -1.7849   -6.5865   35.8799 H   0  0  0  0  0  0  0  0  0  0  0  0
   -2.2380   -7.0845   34.2585 H   0  0  0  0  0  0  0  0  0  0  0  0
   -5.4584   -6.1346   35.8049 H   0  0  0  0  0  0  0  0  0  0  0  0
   -4.3739   -5.8312   34.4689 H   0  0  0  0  0  0  0  0  0  0  0  0
   -3.9293   -5.3367   36.0847 H   0  0  0  0  0  0  0  0  0  0  0  0
   -6.3984  -10.6135   34.4394 H   0  0  0  0  0  0  0  0  0  0  0  0
   -6.8090   -9.1435   33.5888 H   0  0  0  0  0  0  0  0  0  0  0  0
   -7.7523   -9.6454   34.9713 H   0  0  0  0  0  0  0  0  0  0  0  0
  1  2  1  0  0  0  0
  1  3  1  0  0  0  0
  1  8  1  0  0  0  0
  1 32  1  1  0  0  0
  2 16  1  0  0  0  0
  3  4  1  0  0  0  0
  3  5  1  0  0  0  0
  3 33  1  1  0  0  0
  4 34  1  0  0  0  0
  4 35  1  0  0  0  0
  5  6  1  0  0  0  0
  5 36  1  0  0  0  0
  5 37  1  0  0  0  0
  6  7  1  0  0  0  0
  6 38  1  0  0  0  0
  6 39  1  0  0  0  0
  7  8  1  0  0  0  0
  7  9  1  0  0  0  0
  7 40  1  6  0  0  0
  9 10  1  0  0  0  0
  9 41  1  0  0  0  0
  9 42  1  0  0  0  0
 10 43  1  0  0  0  0
 10 44  1  0  0  0  0
 11 12  1  0  0  0  0
 11 13  1  0  0  0  0
 11 19  1  0  0  0  0
 11 45  1  6  0  0  0
 12 46  1  0  0  0  0
 12 47  1  0  0  0  0
 13 14  1  0  0  0  0
 13 48  1  0  0  0  0
 13 49  1  0  0  0  0
 14 15  1  0  0  0  0
 14 16  1  0  0  0  0
 14 50  1  6  0  0  0
 15 51  1  0  0  0  0
 15 52  1  0  0  0  0
 16 17  1  0  0  0  0
 16 53  1  1  0  0  0
 17 18  1  0  0  0  0
 17 19  1  0  0  0  0
 17 54  1  6  0  0  0
 18 55  1  0  0  0  0
 19 20  1  0  0  0  0
 19 56  1  1  0  0  0
 20 21  1  0  0  0  0
 21 22  1  0  0  0  0
 21 29  1  0  0  0  0
 21 57  1  1  0  0  0
 22 23  1  0  0  0  0
 22 24  1  0  0  0  0
 22 58  1  1  0  0  0
 23 59  1  0  0  0  0
 24 25  1  0  0  0  0
 24 26  1  0  0  0  0
 24 60  1  6  0  0  0
 25 31  1  0  0  0  0
 25 61  1  0  0  0  0
 26 27  1  1  0  0  0
 26 28  1  0  0  0  0
 26 30  1  0  0  0  0
 27 62  1  0  0  0  0
 28 29  1  0  0  0  0
 28 63  1  0  0  0  0
 28 64  1  0  0  0  0
 30 65  1  0  0  0  0
 30 66  1  0  0  0  0
 30 67  1  0  0  0  0
 31 68  1  0  0  0  0
 31 69  1  0  0  0  0
 31 70  1  0  0  0  0
M  END
$$$$
