@<TRIPOS>MOLECULE
2ET3_LLL_A_50
 31 33 0 0 0
SMALL
GASTEIGER
****
Coordinates from PDB:2ET3:A:50 Model:1 without hydrogens
@<TRIPOS>ATOM
      1 C           0.9320   -7.1200   29.4420 C.3     1  UNL1        0.2533
      2 O           0.0060   -8.2310   29.3220 O.3     1  UNL1       -0.3277
      3 C           0.3270   -5.8690   28.7960 C.3     1  UNL1        0.1480
      4 N          -0.9370   -5.6040   29.4110 N.3     1  UNL1       -0.1276
      5 C           0.1930   -6.0640   27.2470 C.3     1  UNL1        0.0267
      6 C           1.6200   -6.3170   26.6670 C.3     1  UNL1        0.0329
      7 C           2.2350   -7.6030   27.3760 C.3     1  UNL1        0.1368
      8 O           2.2410   -7.4830   28.8330 O.3     1  UNL1       -0.3304
      9 C           3.6170   -7.9740   26.8920 C.3     1  UNL1        0.1388
     10 N           4.5590   -8.0590   27.9770 N.3     1  UNL1       -0.1287
     11 C          -1.4020  -11.3510   31.8890 C.3     1  UNL1        0.1231
     12 N          -1.4110  -12.3210   32.9400 N.3     1  UNL1       -0.1302
     13 C          -0.2540  -11.6830   30.8820 C.3     1  UNL1        0.0432
     14 C          -0.2310  -10.6160   29.7270 C.3     1  UNL1        0.1231
     15 N           0.8490  -10.9240   28.7760 N.3     1  UNL1       -0.1302
     16 C          -0.0370   -9.1770   30.3420 C.3     1  UNL1        0.1680
     17 C          -1.2080   -8.8730   31.3540 C.3     1  UNL1        0.2088
     18 O          -1.0540   -7.5750   31.9190 O.3     1  UNL1       -0.2178
     19 C          -1.2160   -9.9480   32.4970 C.3     1  UNL1        0.1680
     20 O          -2.2820   -9.6610   33.3940 O.3     1  UNL1       -0.3269
     21 C          -2.1780   -9.8410   34.8380 C.3     1  UNL1        0.2683
     22 C          -3.6230  -10.0400   35.3460 C.3     1  UNL1        0.2262
     23 O          -4.1760  -11.1750   34.7180 O.3     1  UNL1       -0.2161
     24 C          -4.4420   -8.7260   35.0150 C.3     1  UNL1        0.1384
     25 N          -5.8760   -8.8530   35.4350 N.3     1  UNL1       -0.2126
     26 C          -3.7640   -7.4460   35.7400 C.3     1  UNL1        0.1710
     27 O          -3.7850   -7.5810   37.1460 O.3     1  UNL1       -0.2215
     28 C          -2.2720   -7.3400   35.2970 C.3     1  UNL1        0.1765
     29 O          -1.5670   -8.6500   35.4960 O.3     1  UNL1       -0.3259
     30 C          -4.4320   -6.0840   35.5070 C.3     1  UNL1        0.0371
     31 C          -6.7700   -9.6160   34.5480 C.3     1  UNL1        0.1076
@<TRIPOS>BOND
     1     1     2    1
     2     1     3    1
     3     1     8    1
     4     3     4    1
     5     3     5    1
     6     5     6    1
     7     6     7    1
     8     7     8    1
     9     7     9    1
    10     9    10    1
    11    11    12    1
    12    11    13    1
    13    11    19    1
    14    13    14    1
    15    14    15    1
    16    14    16    1
    17    16     2    1
    18    16    17    1
    19    17    18    1
    20    17    19    1
    21    19    20    1
    22    21    20    1
    23    21    22    1
    24    21    29    1
    25    22    23    1
    26    22    24    1
    27    24    25    1
    28    24    26    1
    29    25    31    1
    30    26    27    1
    31    26    28    1
    32    26    30    1
    33    28    29    1
