REMARK  6 active torsions:
REMARK  status: ('A' for Active; 'I' for Inactive)
REMARK    1  A    between atoms: C_2  and  N_3 
REMARK    2  A    between atoms: N_9  and  C_25 
REMARK    3  A    between atoms: C_10  and  C_14 
REMARK    4  A    between atoms: C_14  and  N_15 
REMARK    5  A    between atoms: N_15  and  C_16 
REMARK    6  A    between atoms: C_19  and  C_22 
REMARK       I    between atoms: C_22  and  N_24 
ROOT
ATOM      1  N   UNL d   1       1.285  -1.340  -0.027  0.00  0.00    -0.045 NA
ATOM      2  C   UNL d   1       2.401  -0.698  -0.058  0.00  0.00     0.703 A 
ATOM      3  N   UNL d   1       2.473   0.652   0.025  0.00  0.00    -0.153 N 
ATOM      4  H   UNL d   1       3.355   1.127  -0.056  0.00  0.00     0.187 HD
ATOM      5  C   UNL d   1       1.365   1.444   0.049  0.00  0.00     0.290 A 
ATOM      6  O   UNL d   1       1.486   2.666   0.020  0.00  0.00    -0.265 OA
ATOM      7  C   UNL d   1       0.050   0.731   0.060  0.00  0.00     0.153 A 
ATOM      8  N   UNL d   1      -1.184   1.410   0.040  0.00  0.00    -0.309 N 
ATOM      9  C   UNL d   1      -2.375   0.618  -0.375  0.00  0.00     0.128 C 
ATOM     10  C   UNL d   1      -2.346  -0.756   0.322  0.00  0.00     0.148 C 
ATOM     11  N   UNL d   1      -1.063  -1.375   0.037  0.00  0.00    -0.370 N 
ATOM     12  C   UNL d   1       0.113  -0.631   0.029  0.00  0.00     0.175 A 
ATOM     13  H   UNL d   1      -0.908  -2.334   0.332  0.00  0.00     0.161 HD
ENDROOT
BRANCH   9  14
ATOM     14  C   UNL d   1      -2.427   0.410  -1.911  0.00  0.00     0.147 C 
BRANCH  14  15
ATOM     15  N   UNL d   1      -2.611   1.664  -2.624  0.00  0.00    -0.388 N 
ATOM     16  H   UNL d   1      -2.102   2.477  -2.286  0.00  0.00     0.159 HD
BRANCH  15  17
ATOM     17  C   UNL d   1      -3.062   1.710  -3.931  0.00  0.00     0.028 A 
ATOM     18  C   UNL d   1      -3.588   2.915  -4.405  0.00  0.00     0.030 A 
ATOM     19  C   UNL d   1      -4.250   2.980  -5.635  0.00  0.00     0.019 A 
ATOM     20  C   UNL d   1      -4.387   1.837  -6.431  0.00  0.00     0.032 A 
ATOM     21  C   UNL d   1      -3.812   0.641  -5.995  0.00  0.00     0.019 A 
ATOM     22  C   UNL d   1      -3.169   0.583  -4.752  0.00  0.00     0.030 A 
BRANCH  20  23
ATOM     23  C   UNL d   1      -5.177   1.956  -7.690  0.00  0.00     0.249 C 
ATOM     24  O   UNL d   1      -5.673   3.020  -8.038  0.00  0.00    -0.268 OA
ATOM     25  N   UNL d   1      -5.367   0.838  -8.454  0.00  0.00    -0.366 N 
ATOM     26  H   UNL d   1      -5.047  -0.088  -8.223  0.00  0.00     0.159 HD
ATOM     27  H   UNL d   1      -5.948   0.948  -9.275  0.00  0.00     0.159 HD
ENDBRANCH  20  23
ENDBRANCH  15  17
ENDBRANCH  14  15
ENDBRANCH   9  14
BRANCH   8  28
ATOM     28  C   UNL d   1      -1.369   2.750   0.334  0.00  0.00     0.356 C 
ATOM     29  O   UNL d   1      -2.434   3.353   0.243  0.00  0.00    -0.283 OA
ENDBRANCH   8  28
BRANCH   2  30
ATOM     30  N   UNL d   1       3.574  -1.362  -0.178  0.00  0.00    -0.233 N 
ATOM     31  H   UNL d   1       3.475  -2.362  -0.037  0.00  0.00     0.174 HD
ATOM     32  H   UNL d   1       4.393  -0.966   0.260  0.00  0.00     0.174 HD
ENDBRANCH   2  30
TORSDOF 6
