@<TRIPOS>MOLECULE
4LVV_FFO_A_101
 42 44 0 0 0
SMALL
GASTEIGER

@<TRIPOS>ATOM
      1 N           1.2848   -1.3399   -0.0267 N.ar    1  UNL1       -0.1994
      2 C           2.4011   -0.6976   -0.0581 C.ar    1  UNL1        0.1948
      3 N           3.5735   -1.3618   -0.1780 N.pl3   1  UNL1       -0.3289
      4 N           2.4726    0.6520    0.0251 N.ar    1  UNL1       -0.2937
      5 H           3.3553    1.1268   -0.0562 H       1  UNL1        0.1716
      6 C           1.3649    1.4442    0.0493 C.ar    1  UNL1        0.2761
      7 O           1.4860    2.6663    0.0196 O.2     1  UNL1       -0.2657
      8 C           0.0502    0.7310    0.0600 C.ar    1  UNL1        0.1416
      9 N          -1.1842    1.4103    0.0397 N.am    1  UNL1       -0.2607
     10 C          -2.3749    0.6179   -0.3750 C.3     1  UNL1        0.0619
     11 H          -3.2875    1.1420   -0.0628 H       1  UNL1        0.0535
     12 C          -2.3465   -0.7560    0.3216 C.3     1  UNL1        0.0310
     13 N          -1.0632   -1.3752    0.0370 N.pl3   1  UNL1       -0.3255
     14 C           0.1127   -0.6311    0.0292 C.ar    1  UNL1        0.1493
     15 C          -2.4267    0.4101   -1.9115 C.3     1  UNL1        0.0296
     16 N          -2.6105    1.6639   -2.6240 N.pl3   1  UNL1       -0.3420
     17 C          -3.0619    1.7105   -3.9307 C.ar    1  UNL1        0.0272
     18 C          -3.5883    2.9151   -4.4050 C.ar    1  UNL1       -0.0401
     19 C          -4.2503    2.9803   -5.6348 C.ar    1  UNL1       -0.0479
     20 C          -4.3872    1.8375   -6.4310 C.ar    1  UNL1        0.0366
     21 C          -3.8121    0.6413   -5.9949 C.ar    1  UNL1       -0.0479
     22 C          -3.1690    0.5829   -4.7519 C.ar    1  UNL1       -0.0401
     23 C          -5.1773    1.9561   -7.6899 C.2     1  UNL1        0.2415
     24 O          -5.6730    3.0200   -8.0382 O.2     1  UNL1       -0.2704
     25 N          -5.3670    0.8378   -8.4537 N.am    1  UNL1       -0.3253
     26 C          -1.3685    2.7502    0.3335 C.2     1  UNL1        0.2073
     27 O          -2.4338    3.3528    0.2426 O.2     1  UNL1       -0.2790
     28 H           3.4749   -2.3622   -0.0375 H       1  UNL1        0.1451
     29 H           4.3926   -0.9664    0.2601 H       1  UNL1        0.1451
     30 H          -3.1621   -1.3972   -0.0283 H       1  UNL1        0.0480
     31 H          -2.4569   -0.6332    1.4055 H       1  UNL1        0.0480
     32 H          -0.9083   -2.3341    0.3324 H       1  UNL1        0.1476
     33 H          -1.5189   -0.0796   -2.2818 H       1  UNL1        0.0480
     34 H          -3.2745   -0.2537   -2.1239 H       1  UNL1        0.0480
     35 H          -2.1018    2.4771   -2.2859 H       1  UNL1        0.1461
     36 H          -3.5408    3.8073   -3.7839 H       1  UNL1        0.0636
     37 H          -4.6909    3.9247   -5.9477 H       1  UNL1        0.0626
     38 H          -3.8629   -0.2691   -6.5794 H       1  UNL1        0.0626
     39 H          -2.7514   -0.3702   -4.4373 H       1  UNL1        0.0636
     40 H          -5.0470   -0.0877   -8.2225 H       1  UNL1        0.1453
     41 H          -5.9476    0.9481   -9.2747 H       1  UNL1        0.1453
     42 H          -0.4833    3.2671    0.7202 H       1  UNL1        0.1257
@<TRIPOS>BOND
     1     1     2   ar
     2     1    14   ar
     3     2     3    1
     4     2     4   ar
     5     3    28    1
     6     3    29    1
     7     4     5    1
     8     4     6   ar
     9     6     7    2
    10     6     8   ar
    11     8     9    1
    12     8    14   ar
    13     9    10    1
    14     9    26   am
    15    10    12    1
    16    10    15    1
    17    10    11    1
    18    12    13    1
    19    12    30    1
    20    12    31    1
    21    13    14    1
    22    13    32    1
    23    15    16    1
    24    15    33    1
    25    15    34    1
    26    16    17    1
    27    16    35    1
    28    17    18   ar
    29    17    22   ar
    30    18    19   ar
    31    18    36    1
    32    19    20   ar
    33    19    37    1
    34    20    21   ar
    35    20    23    1
    36    21    22   ar
    37    21    38    1
    38    22    39    1
    39    23    24    2
    40    23    25   am
    41    25    40    1
    42    25    41    1
    43    26    27    2
    44    26    42    1
