4LX5_29G_A_501
 OpenBabel10091713583D
Coordinates from PDB:4LX5:A:501 Model:1 without hydrogens
 18 19  0  0  0  0  0  0  0  0999 V2000
    4.5850   15.1620    2.9320 N   0  0  0  0  0  0  0  0  0  0  0  0
    5.4060   16.1990    2.7330 C   0  0  0  0  0  0  0  0  0  0  0  0
    5.9850   16.4340    1.5480 N   0  0  0  0  0  0  0  0  0  0  0  0
    5.6600   17.0380    3.8250 C   0  0  0  0  0  0  0  0  0  0  0  0
    5.0700   16.7850    5.0620 C   0  0  0  0  0  0  0  0  0  0  0  0
    5.3720   17.6480    6.1340 N   0  0  0  0  0  0  0  0  0  0  0  0
    6.2380   18.7350    5.9390 C   0  0  0  0  0  0  0  0  0  0  0  0
    6.8260   18.9520    4.6710 N   0  0  0  0  0  0  0  0  0  0  0  0
    6.5300   18.1190    3.6500 C   0  0  0  0  0  0  0  0  0  0  0  0
    7.0830   18.3210    2.4280 N   0  0  0  0  0  0  0  0  0  0  0  0
    6.8180   17.4870    1.3980 C   0  0  0  0  0  0  0  0  0  0  0  0
    7.3630   17.7180    0.2070 N   0  0  0  0  0  0  0  0  0  0  0  0
    4.3797   14.5474    2.1908 H   0  0  0  0  0  0  0  0  0  0  0  0
    4.1860   15.0133    3.8197 H   0  0  0  0  0  0  0  0  0  0  0  0
    4.4287   15.9865    5.1895 H   0  0  0  0  0  0  0  0  0  0  0  0
    6.4458   19.3759    6.7207 H   0  0  0  0  0  0  0  0  0  0  0  0
    7.1733   17.1137   -0.5467 H   0  0  0  0  0  0  0  0  0  0  0  0
    7.9561   18.4933    0.0791 H   0  0  0  0  0  0  0  0  0  0  0  0
  1 13  1  0  0  0  0
  1 14  1  0  0  0  0
  2  1  1  0  0  0  0
  2  4  1  0  0  0  0
  3  2  2  0  0  0  0
  4  5  1  0  0  0  0
  5  6  2  0  0  0  0
  5 15  1  0  0  0  0
  7  6  1  0  0  0  0
  7 16  1  0  0  0  0
  8  7  2  0  0  0  0
  9  4  2  0  0  0  0
  9  8  1  0  0  0  0
 10  9  1  0  0  0  0
 11  3  1  0  0  0  0
 11 10  2  0  0  0  0
 12 11  1  0  0  0  0
 12 17  1  0  0  0  0
 12 18  1  0  0  0  0
M  END
$$$$
