@<TRIPOS>MOLECULE
4LX5_29G_A_501
 12 13 0 0 0
SMALL
GASTEIGER
****
Coordinates from PDB:4LX5:A:501 Model:1 without hydrogens
@<TRIPOS>ATOM
      1 N           4.5850   15.1620    2.9320 N.pl3   1  UNL1       -0.1069
      2 C           5.4060   16.1990    2.7330 C.ar    1  UNL1        0.1770
      3 N           5.9850   16.4340    1.5480 N.ar    1  UNL1       -0.1927
      4 C           5.6600   17.0380    3.8250 C.ar    1  UNL1        0.0899
      5 C           5.0700   16.7850    5.0620 C.ar    1  UNL1        0.1066
      6 N           5.3720   17.6480    6.1340 N.ar    1  UNL1       -0.2222
      7 C           6.2380   18.7350    5.9390 C.ar    1  UNL1        0.2003
      8 N           6.8260   18.9520    4.6710 N.ar    1  UNL1       -0.2046
      9 C           6.5300   18.1190    3.6500 C.ar    1  UNL1        0.1713
     10 N           7.0830   18.3210    2.4280 N.ar    1  UNL1       -0.1918
     11 C           6.8180   17.4870    1.3980 C.ar    1  UNL1        0.2592
     12 N           7.3630   17.7180    0.2070 N.pl3   1  UNL1       -0.0860
@<TRIPOS>BOND
     1     2     1    1
     2     2     4   ar
     3     3     2   ar
     4     4     5   ar
     5     5     6   ar
     6     7     6   ar
     7     8     7   ar
     8     9     4   ar
     9     9     8   ar
    10    10     9   ar
    11    11     3   ar
    12    11    10   ar
    13    12    11    1
