4LX5_29G_A_501
 OpenBabel10091713583D
Coordinates from PDB:4LX5:A:501 Model:1 without hydrogens
 12 13  0  0  0  0  0  0  0  0999 V2000
    4.5850   15.1620    2.9320 N   0  0  0  0  0  0  0  0  0  0  0  0
    5.4060   16.1990    2.7330 C   0  0  0  0  0  0  0  0  0  0  0  0
    5.9850   16.4340    1.5480 N   0  0  0  0  0  0  0  0  0  0  0  0
    5.6600   17.0380    3.8250 C   0  0  0  0  0  0  0  0  0  0  0  0
    5.0700   16.7850    5.0620 C   0  0  0  0  0  0  0  0  0  0  0  0
    5.3720   17.6480    6.1340 N   0  0  0  0  0  0  0  0  0  0  0  0
    6.2380   18.7350    5.9390 C   0  0  0  0  0  0  0  0  0  0  0  0
    6.8260   18.9520    4.6710 N   0  0  0  0  0  0  0  0  0  0  0  0
    6.5300   18.1190    3.6500 C   0  0  0  0  0  0  0  0  0  0  0  0
    7.0830   18.3210    2.4280 N   0  0  0  0  0  0  0  0  0  0  0  0
    6.8180   17.4870    1.3980 C   0  0  0  0  0  0  0  0  0  0  0  0
    7.3630   17.7180    0.2070 N   0  0  0  0  0  0  0  0  0  0  0  0
  2  1  1  0  0  0  0
  2  4  2  0  0  0  0
  3  2  1  0  0  0  0
  4  5  1  0  0  0  0
  5  6  2  0  0  0  0
  7  6  1  0  0  0  0
  8  7  2  0  0  0  0
  9  4  1  0  0  0  0
  9  8  1  0  0  0  0
 10  9  2  0  0  0  0
 11  3  2  0  0  0  0
 11 10  1  0  0  0  0
 12 11  1  0  0  0  0
A    1
NAB
A    2
CAJ
A    3
NAG
A    4
C5
A    5
C6
A    6
N1
A    7
C2
A    8
N3
A    9
C4
A   10
NAH
A   11
CAI
A   12
NAA
M  END
>  <InstanceId>
4LX5_29G_A_501

>  <ChemCompId>
29G

>  <PdbId>
4LX5

>  <ChainId>
A

>  <ResidueNumber>
501

>  <InsertionCode>


>  <Model>
1

>  <AltIds>


>  <MissingHeavyAtoms>
0

>  <ObservedFormula>
C6 N6

>  <Name>
pyrimido[4,5-d]pyrimidine-2,4-diamine

>  <SystematicName>
pyrimido[4,5-d]pyrimidine-2,4-diamine

>  <Synonyms>


>  <Type>
NON-POLYMER

>  <Formula>
C6 H6 N6

>  <MolecularWeight>
162.152

>  <ModifiedDate>
2014-07-11

>  <Parent>


>  <OneLetterCode>


>  <SubcomponentList>


>  <AmbiguousFlag>
N

>  <InChI>
InChI=1S/C6H6N6/c7-4-3-1-9-2-10-5(3)12-6(8)11-4/h1-2H,(H4,7,8,9,10,11,12)

>  <InChIKey>
CEXXKZCAMOMPLI-UHFFFAOYSA-N

>  <SMILES>
c1c2c(nc(nc2ncn1)N)N

$$$$
