3TD1_GET_B_50
 OpenBabel03221817313D

 74 76  0  0  1  0  0  0  0  0999 V2000
   -1.2755    5.3358    1.9983 C   0  0  2  0  0  0  0  0  0  0  0  0
   -0.3096    4.9049    1.7375 H   0  0  0  0  0  0  0  0  0  0  0  0
   -2.2504    4.8066    1.0858 O   0  0  0  0  0  0  0  0  0  0  0  0
   -2.0949    5.2036   -0.2984 C   0  0  2  0  0  0  0  0  0  0  0  0
   -2.1843    6.2968   -0.3537 H   0  0  0  0  0  0  0  0  0  0  0  0
   -3.2709    4.5356   -1.0581 C   0  0  2  0  0  0  0  0  0  0  0  0
   -3.2839    3.4709   -0.8009 H   0  0  0  0  0  0  0  0  0  0  0  0
   -3.1615    4.6736   -2.5822 C   0  0  0  0  0  0  0  0  0  0  0  0
   -1.8258    4.1273   -3.0951 C   0  0  1  0  0  0  0  0  0  0  0  0
   -1.7204    3.0715   -2.8207 H   0  0  0  0  0  0  0  0  0  0  0  0
   -1.8377    4.1813   -4.5659 N   0  0  0  0  0  0  0  0  0  0  0  0
   -0.6742    4.9259   -2.4345 C   0  0  1  0  0  0  0  0  0  0  0  0
   -0.7594    5.9968   -2.6674 H   0  0  0  0  0  0  0  0  0  0  0  0
   -0.7464    4.7547   -0.9069 C   0  0  1  0  0  0  0  0  0  0  0  0
   -0.5547    3.7098   -0.6348 H   0  0  0  0  0  0  0  0  0  0  0  0
    0.3466    5.4920   -0.3412 O   0  0  0  0  0  0  0  0  0  0  0  0
    0.6435    4.4833   -2.8009 O   0  0  0  0  0  0  0  0  0  0  0  0
    1.0352    4.7314   -4.1486 C   0  0  2  0  0  0  0  0  0  0  0  0
    0.5332    4.0204   -4.8020 H   0  0  0  0  0  0  0  0  0  0  0  0
    2.5567    4.4672   -4.2185 C   0  0  2  0  0  0  0  0  0  0  0  0
    2.7659    3.4494   -3.8767 H   0  0  0  0  0  0  0  0  0  0  0  0
    3.2727    5.3106   -3.2969 O   0  0  0  0  0  0  0  0  0  0  0  0
    3.0731    4.7054   -5.6550 C   0  0  1  0  0  0  0  0  0  0  0  0
    4.1712    4.7030   -5.6470 H   0  0  0  0  0  0  0  0  0  0  0  0
    2.6624    3.6701   -6.6464 N   0  0  0  0  0  0  0  0  0  0  0  0
    3.0751    2.3186   -6.3055 C   0  0  0  0  0  0  0  0  0  0  0  0
    2.6105    6.1227   -6.1603 C   0  0  2  0  0  0  0  0  0  0  0  0
    2.8626    6.2574   -7.5726 O   0  0  0  0  0  0  0  0  0  0  0  0
    3.3755    7.2702   -5.4870 C   0  0  0  0  0  0  0  0  0  0  0  0
    1.1004    6.2981   -5.9152 C   0  0  0  0  0  0  0  0  0  0  0  0
    0.7471    6.0753   -4.5477 O   0  0  0  0  0  0  0  0  0  0  0  0
   -4.5672    5.0929   -0.6382 N   0  0  0  0  0  0  0  0  0  0  0  0
   -1.6063    4.8501    3.4462 C   0  0  2  0  0  0  0  0  0  0  0  0
   -1.5561    3.7546    3.4510 H   0  0  0  0  0  0  0  0  0  0  0  0
   -2.9798    5.2107    3.8835 N   0  0  0  0  0  0  0  0  0  0  0  0
   -0.5351    5.4205    4.4089 C   0  0  1  0  0  0  0  0  0  0  0  0
   -0.8283    5.1734    5.4369 H   0  0  0  0  0  0  0  0  0  0  0  0
    0.7316    4.7872    4.1917 O   0  0  0  0  0  0  0  0  0  0  0  0
   -0.3788    6.9419    4.2587 C   0  0  2  0  0  0  0  0  0  0  0  0
    0.4874    7.2871    4.8307 H   0  0  0  0  0  0  0  0  0  0  0  0
   -1.5243    7.6009    4.8281 O   0  0  0  0  0  0  0  0  0  0  0  0
   -0.2464    7.3861    2.7829 C   0  0  2  0  0  0  0  0  0  0  0  0
   -0.5253    8.4481    2.7507 H   0  0  0  0  0  0  0  0  0  0  0  0
   -1.2431    6.7629    1.9460 O   0  0  0  0  0  0  0  0  0  0  0  0
    1.1778    7.3201    2.1525 C   0  0  2  0  0  0  0  0  0  0  0  0
    1.0816    7.6149    1.1006 H   0  0  0  0  0  0  0  0  0  0  0  0
    1.8073    6.0444    2.1407 O   0  0  0  0  0  0  0  0  0  0  0  0
    2.1719    8.2732    2.8033 C   0  0  0  0  0  0  0  0  0  0  0  0
   -3.2653    5.7305   -2.8703 H   0  0  0  0  0  0  0  0  0  0  0  0
   -3.9915    4.1356   -3.0580 H   0  0  0  0  0  0  0  0  0  0  0  0
   -1.8701    5.1527   -4.8727 H   0  0  0  0  0  0  0  0  0  0  0  0
   -2.6813    3.7351   -4.9251 H   0  0  0  0  0  0  0  0  0  0  0  0
    0.2849    6.4164   -0.6391 H   0  0  0  0  0  0  0  0  0  0  0  0
    2.6814    5.4130   -2.5243 H   0  0  0  0  0  0  0  0  0  0  0  0
    1.6540    3.6938   -6.8086 H   0  0  0  0  0  0  0  0  0  0  0  0
    4.1417    2.2650   -6.0943 H   0  0  0  0  0  0  0  0  0  0  0  0
    2.8716    1.6601   -7.1599 H   0  0  0  0  0  0  0  0  0  0  0  0
    2.5128    1.9164   -5.4576 H   0  0  0  0  0  0  0  0  0  0  0  0
    3.6565    5.7220   -7.7609 H   0  0  0  0  0  0  0  0  0  0  0  0
    4.4524    7.0710   -5.4815 H   0  0  0  0  0  0  0  0  0  0  0  0
    3.0503    7.4550   -4.4597 H   0  0  0  0  0  0  0  0  0  0  0  0
    3.2373    8.2027   -6.0471 H   0  0  0  0  0  0  0  0  0  0  0  0
    0.5083    5.6311   -6.5571 H   0  0  0  0  0  0  0  0  0  0  0  0
    0.7870    7.3120   -6.1863 H   0  0  0  0  0  0  0  0  0  0  0  0
   -4.5783    5.0931    0.3875 H   0  0  0  0  0  0  0  0  0  0  0  0
   -5.3185    4.4660   -0.9250 H   0  0  0  0  0  0  0  0  0  0  0  0
   -3.1042    6.2147    3.7203 H   0  0  0  0  0  0  0  0  0  0  0  0
   -3.0943    5.0541    4.8809 H   0  0  0  0  0  0  0  0  0  0  0  0
    1.2572    4.8818    5.0085 H   0  0  0  0  0  0  0  0  0  0  0  0
   -1.6718    7.2504    5.7227 H   0  0  0  0  0  0  0  0  0  0  0  0
    1.5198    5.5059    2.9025 H   0  0  0  0  0  0  0  0  0  0  0  0
    2.3583    8.0122    3.8479 H   0  0  0  0  0  0  0  0  0  0  0  0
    1.8285    9.3090    2.7480 H   0  0  0  0  0  0  0  0  0  0  0  0
    3.1428    8.2028    2.2973 H   0  0  0  0  0  0  0  0  0  0  0  0
  1 44  1  0  0  0  0
  1  3  1  0  0  0  0
  1  2  1  6  0  0  0
  4  6  1  6  0  0  0
  4  5  1  0  0  0  0
  4  3  1  0  0  0  0
  6  7  1  1  0  0  0
  6  8  1  0  0  0  0
  6 32  1  0  0  0  0
  8  9  1  0  0  0  0
  8 49  1  0  0  0  0
  8 50  1  0  0  0  0
  9 12  1  1  0  0  0
  9 11  1  0  0  0  0
  9 10  1  0  0  0  0
 11 51  1  0  0  0  0
 11 52  1  0  0  0  0
 12 13  1  0  0  0  0
 12 14  1  1  0  0  0
 12 17  1  0  0  0  0
 14  4  1  1  0  0  0
 14 16  1  0  0  0  0
 14 15  1  0  0  0  0
 16 53  1  0  0  0  0
 18 20  1  6  0  0  0
 18 31  1  0  0  0  0
 18 19  1  0  0  0  0
 18 17  1  0  0  0  0
 20 23  1  6  0  0  0
 20 22  1  0  0  0  0
 20 21  1  0  0  0  0
 22 54  1  0  0  0  0
 23 27  1  6  0  0  0
 23 25  1  0  0  0  0
 23 24  1  0  0  0  0
 25 26  1  0  0  0  0
 25 55  1  0  0  0  0
 26 56  1  0  0  0  0
 26 57  1  0  0  0  0
 26 58  1  0  0  0  0
 27 28  1  6  0  0  0
 27 29  1  0  0  0  0
 27 30  1  0  0  0  0
 28 59  1  0  0  0  0
 29 60  1  0  0  0  0
 29 61  1  0  0  0  0
 29 62  1  0  0  0  0
 30 31  1  0  0  0  0
 30 63  1  0  0  0  0
 30 64  1  0  0  0  0
 32 65  1  0  0  0  0
 32 66  1  0  0  0  0
 33  1  1  6  0  0  0
 33 35  1  0  0  0  0
 33 34  1  0  0  0  0
 35 67  1  0  0  0  0
 35 68  1  0  0  0  0
 36 33  1  6  0  0  0
 36 38  1  0  0  0  0
 36 37  1  0  0  0  0
 38 69  1  0  0  0  0
 39 36  1  1  0  0  0
 39 40  1  0  0  0  0
 39 41  1  0  0  0  0
 41 70  1  0  0  0  0
 42 39  1  1  0  0  0
 42 44  1  0  0  0  0
 42 45  1  0  0  0  0
 42 43  1  0  0  0  0
 45 48  1  0  0  0  0
 45 47  1  0  0  0  0
 45 46  1  6  0  0  0
 47 71  1  0  0  0  0
 48 72  1  0  0  0  0
 48 73  1  0  0  0  0
 48 74  1  0  0  0  0
M  END
$$$$
