@<TRIPOS>MOLECULE
3TD1_GET_B_50
 74 76 0 0 0
SMALL
GASTEIGER

@<TRIPOS>ATOM
      1 C          -1.2755    5.3358    1.9983 C.3     1  UNL1        0.1776
      2 H          -0.3096    4.9049    1.7375 H       1  UNL1        0.0927
      3 O          -2.2504    4.8066    1.0858 O.3     1  UNL1       -0.3422
      4 C          -2.0949    5.2036   -0.2984 C.3     1  UNL1        0.1051
      5 H          -2.1843    6.2968   -0.3537 H       1  UNL1        0.0639
      6 C          -3.2709    4.5356   -1.0581 C.3     1  UNL1        0.0355
      7 H          -3.2839    3.4709   -0.8009 H       1  UNL1        0.0485
      8 C          -3.1615    4.6736   -2.5822 C.3     1  UNL1       -0.0175
      9 C          -1.8258    4.1273   -3.0951 C.3     1  UNL1        0.0355
     10 H          -1.7204    3.0715   -2.8207 H       1  UNL1        0.0485
     11 N          -1.8377    4.1813   -4.5659 N.3     1  UNL1       -0.3250
     12 C          -0.6742    4.9259   -2.4345 C.3     1  UNL1        0.1051
     13 H          -0.7594    5.9968   -2.6674 H       1  UNL1        0.0639
     14 C          -0.7464    4.7547   -0.9069 C.3     1  UNL1        0.1104
     15 H          -0.5547    3.7098   -0.6348 H       1  UNL1        0.0646
     16 O           0.3466    5.4920   -0.3412 O.3     1  UNL1       -0.3865
     17 O           0.6435    4.4833   -2.8009 O.3     1  UNL1       -0.3413
     18 C           1.0352    4.7314   -4.1486 C.3     1  UNL1        0.1870
     19 H           0.5332    4.0204   -4.8020 H       1  UNL1        0.0937
     20 C           2.5567    4.4672   -4.2185 C.3     1  UNL1        0.1239
     21 H           2.7659    3.4494   -3.8767 H       1  UNL1        0.0661
     22 O           3.2727    5.3106   -3.2969 O.3     1  UNL1       -0.3851
     23 C           3.0731    4.7054   -5.6550 C.3     1  UNL1        0.0692
     24 H           4.1712    4.7030   -5.6470 H       1  UNL1        0.0517
     25 N           2.6624    3.6701   -6.6464 N.3     1  UNL1       -0.3115
     26 C           3.0751    2.3186   -6.3055 C.3     1  UNL1       -0.0154
     27 C           2.6105    6.1227   -6.1603 C.3     1  UNL1        0.1043
     28 O           2.8626    6.2574   -7.5726 O.3     1  UNL1       -0.3849
     29 C           3.3755    7.2702   -5.4870 C.3     1  UNL1       -0.0323
     30 C           1.1004    6.2981   -5.9152 C.3     1  UNL1        0.0808
     31 O           0.7471    6.0753   -4.5477 O.3     1  UNL1       -0.3459
     32 N          -4.5672    5.0929   -0.6382 N.3     1  UNL1       -0.3250
     33 C          -1.6063    4.8501    3.4462 C.3     1  UNL1        0.0853
     34 H          -1.5561    3.7546    3.4510 H       1  UNL1        0.0535
     35 N          -2.9798    5.2107    3.8835 N.3     1  UNL1       -0.3211
     36 C          -0.5351    5.4205    4.4089 C.3     1  UNL1        0.1033
     37 H          -0.8283    5.1734    5.4369 H       1  UNL1        0.0637
     38 O           0.7316    4.7872    4.1917 O.3     1  UNL1       -0.3874
     39 C          -0.3788    6.9419    4.2587 C.3     1  UNL1        0.1112
     40 H           0.4874    7.2871    4.8307 H       1  UNL1        0.0646
     41 O          -1.5243    7.6009    4.8281 O.3     1  UNL1       -0.3865
     42 C          -0.2464    7.3861    2.7829 C.3     1  UNL1        0.1155
     43 H          -0.5253    8.4481    2.7507 H       1  UNL1        0.0650
     44 O          -1.2431    6.7629    1.9460 O.3     1  UNL1       -0.3412
     45 C           1.1778    7.3201    2.1525 C.3     1  UNL1        0.0811
     46 H           1.0816    7.6149    1.1006 H       1  UNL1        0.0617
     47 O           1.8073    6.0444    2.1407 O.3     1  UNL1       -0.3894
     48 C           2.1719    8.2732    2.8033 C.3     1  UNL1       -0.0364
     49 H          -3.2653    5.7305   -2.8703 H       1  UNL1        0.0297
     50 H          -3.9915    4.1356   -3.0580 H       1  UNL1        0.0297
     51 H          -1.8701    5.1527   -4.8727 H       1  UNL1        0.1185
     52 H          -2.6813    3.7351   -4.9251 H       1  UNL1        0.1185
     53 H           0.2849    6.4164   -0.6391 H       1  UNL1        0.2100
     54 H           2.6814    5.4130   -2.5243 H       1  UNL1        0.2101
     55 H           1.6540    3.6938   -6.8086 H       1  UNL1        0.1221
     56 H           4.1417    2.2650   -6.0943 H       1  UNL1        0.0388
     57 H           2.8716    1.6601   -7.1599 H       1  UNL1        0.0388
     58 H           2.5128    1.9164   -5.4576 H       1  UNL1        0.0388
     59 H           3.6565    5.7220   -7.7609 H       1  UNL1        0.2103
     60 H           4.4524    7.0710   -5.4815 H       1  UNL1        0.0258
     61 H           3.0503    7.4550   -4.4597 H       1  UNL1        0.0258
     62 H           3.2373    8.2027   -6.0471 H       1  UNL1        0.0258
     63 H           0.5083    5.6311   -6.5571 H       1  UNL1        0.0590
     64 H           0.7870    7.3120   -6.1863 H       1  UNL1        0.0590
     65 H          -4.5783    5.0931    0.3875 H       1  UNL1        0.1185
     66 H          -5.3185    4.4660   -0.9250 H       1  UNL1        0.1185
     67 H          -3.1042    6.2147    3.7203 H       1  UNL1        0.1187
     68 H          -3.0943    5.0541    4.8809 H       1  UNL1        0.1187
     69 H           1.2572    4.8818    5.0085 H       1  UNL1        0.2100
     70 H          -1.6718    7.2504    5.7227 H       1  UNL1        0.2100
     71 H           1.5198    5.5059    2.9025 H       1  UNL1        0.2099
     72 H           2.3583    8.0122    3.8479 H       1  UNL1        0.0255
     73 H           1.8285    9.3090    2.7480 H       1  UNL1        0.0255
     74 H           3.1428    8.2028    2.2973 H       1  UNL1        0.0255
@<TRIPOS>BOND
     1     1    44    1
     2     1     3    1
     3     1     2    1
     4     4     6    1
     5     4     5    1
     6     4     3    1
     7     6     7    1
     8     6     8    1
     9     6    32    1
    10     8     9    1
    11     8    49    1
    12     8    50    1
    13     9    12    1
    14     9    11    1
    15     9    10    1
    16    11    51    1
    17    11    52    1
    18    12    13    1
    19    12    14    1
    20    12    17    1
    21    14     4    1
    22    14    16    1
    23    14    15    1
    24    16    53    1
    25    18    20    1
    26    18    31    1
    27    18    19    1
    28    18    17    1
    29    20    23    1
    30    20    22    1
    31    20    21    1
    32    22    54    1
    33    23    27    1
    34    23    25    1
    35    23    24    1
    36    25    26    1
    37    25    55    1
    38    26    56    1
    39    26    57    1
    40    26    58    1
    41    27    28    1
    42    27    29    1
    43    27    30    1
    44    28    59    1
    45    29    60    1
    46    29    61    1
    47    29    62    1
    48    30    31    1
    49    30    63    1
    50    30    64    1
    51    32    65    1
    52    32    66    1
    53    33     1    1
    54    33    35    1
    55    33    34    1
    56    35    67    1
    57    35    68    1
    58    36    33    1
    59    36    38    1
    60    36    37    1
    61    38    69    1
    62    39    36    1
    63    39    40    1
    64    39    41    1
    65    41    70    1
    66    42    39    1
    67    42    44    1
    68    42    45    1
    69    42    43    1
    70    45    48    1
    71    45    47    1
    72    45    46    1
    73    47    71    1
    74    48    72    1
    75    48    73    1
    76    48    74    1
