@<TRIPOS>MOLECULE
3D2G_TPP_A_83
 45 46 0 0 0
SMALL
GASTEIGER

@<TRIPOS>ATOM
      1 N          -0.7064   -1.7618   -3.6228 N.ar    1  UNL1       -0.2400
      2 C           0.6268   -1.9060   -3.6466 C.ar    1  UNL1        0.1280
      3 C           1.3711   -1.3844   -4.8376 C.3     1  UNL1       -0.0046
      4 N           1.3346   -2.4422   -2.6385 N.ar    1  UNL1       -0.2176
      5 C           0.6782   -2.7246   -1.5071 C.ar    1  UNL1        0.1289
      6 N           1.4455   -3.3637   -0.5358 N.pl3   1  UNL1       -0.3427
      7 C          -0.6721   -2.4643   -1.3266 C.ar    1  UNL1        0.0747
      8 C          -1.3273   -2.0581   -2.4698 C.ar    1  UNL1        0.0421
      9 C          -1.3058   -2.5846    0.0263 C.3     1  UNL1        0.1811
     10 N          -2.7729   -2.4153    0.0408 N.ar    1  UNL1       -0.1903
     11 C          -3.5383   -3.4870   -0.0929 C.ar    1  UNL1        0.2109
     12 S          -5.1951   -3.0921   -0.0306 S.2     1  UNL1       -0.0273
     13 C          -4.8531   -1.4108    0.1397 C.ar    1  UNL1        0.0636
     14 C          -3.4794   -1.2213    0.2429 C.ar    1  UNL1        0.1915
     15 C          -2.7715    0.0659    0.4679 C.3     1  UNL1        0.0216
     16 C          -5.9953   -0.4157    0.0541 C.3     1  UNL1        0.0088
     17 C          -6.1896   -0.0208   -1.4124 C.3     1  UNL1        0.0637
     18 O          -7.2394    0.9247   -1.6757 O.3     1  UNL1       -0.2860
     19 P          -7.3975    1.3569   -3.3434 P.3     1  UNL1        0.4834
     20 O          -5.8854    1.2527   -3.5822 O.2     1  UNL1       -0.2269
     21 O          -8.0668   -0.1132   -3.6571 O.3     1  UNL1       -0.3022
     22 O          -7.5555    1.7891   -5.0111 O.3     1  UNL1       -0.1862
     23 P          -8.3785    3.3054   -5.1383 P.3     1  UNL1        0.4808
     24 O          -8.5110    3.4758   -3.6279 O.2     1  UNL1       -0.2271
     25 O          -7.0123    4.0314   -5.6208 O.3     1  UNL1       -0.3023
     26 O          -9.2015    4.8218   -5.2655 O.3     1  UNL1       -0.3023
     27 H           0.7786   -0.6220   -5.3557 H       1  UNL1        0.0308
     28 H           1.5934   -2.1951   -5.5354 H       1  UNL1        0.0308
     29 H           2.3103   -0.9164   -4.5228 H       1  UNL1        0.0308
     30 H           2.3714   -3.4928   -0.9487 H       1  UNL1        0.1437
     31 H           1.5468   -2.8683    0.3394 H       1  UNL1        0.1437
     32 H          -2.4045   -1.9323   -2.5256 H       1  UNL1        0.0836
     33 H          -0.8499   -1.8476    0.6952 H       1  UNL1        0.1087
     34 H          -1.0781   -3.5694    0.4559 H       1  UNL1        0.1087
     35 H          -3.1748   -4.4984   -0.2295 H       1  UNL1        0.1462
     36 H          -3.3874    0.7343    1.0773 H       1  UNL1        0.0336
     37 H          -2.5679    0.5671   -0.4824 H       1  UNL1        0.0336
     38 H          -1.8318   -0.0564    1.0106 H       1  UNL1        0.0336
     39 H          -5.7747    0.4737    0.6557 H       1  UNL1        0.0343
     40 H          -6.9233   -0.8344    0.4620 H       1  UNL1        0.0343
     41 H          -6.3731   -0.9181   -2.0135 H       1  UNL1        0.0569
     42 H          -5.2306    0.4093   -1.7184 H       1  UNL1        0.0569
     43 H          -9.0351   -0.1142   -3.5307 H       1  UNL1        0.2220
     44 H          -6.4927    4.3742   -4.8740 H       1  UNL1        0.2220
     45 H         -10.1501    4.7151   -5.0756 H       1  UNL1        0.2220
@<TRIPOS>BOND
     1     1     2   ar
     2     1     8   ar
     3     2     3    1
     4     2     4   ar
     5     3    27    1
     6     3    28    1
     7     3    29    1
     8     4     5   ar
     9     5     6    1
    10     5     7   ar
    11     6    30    1
    12     6    31    1
    13     7     8   ar
    14     7     9    1
    15     8    32    1
    16     9    10    1
    17     9    33    1
    18     9    34    1
    19    10    11   ar
    20    10    14   ar
    21    11    12   ar
    22    11    35    1
    23    12    13   ar
    24    13    14   ar
    25    13    16    1
    26    14    15    1
    27    15    36    1
    28    15    37    1
    29    15    38    1
    30    16    17    1
    31    16    39    1
    32    16    40    1
    33    17    18    1
    34    17    41    1
    35    17    42    1
    36    18    19    1
    37    19    20    2
    38    19    21    1
    39    19    22    1
    40    21    43    1
    41    22    23    1
    42    23    24    2
    43    23    25    1
    44    23    26    1
    45    25    44    1
    46    26    45    1
