REMARK  12 active torsions:
REMARK  status: ('A' for Active; 'I' for Inactive)
REMARK    1  A    between atoms: C_5  and  N_6 
REMARK    2  A    between atoms: C_7  and  C_9 
REMARK    3  A    between atoms: C_9  and  N_10 
REMARK    4  A    between atoms: C_13  and  C_16 
REMARK    5  A    between atoms: C_16  and  C_17 
REMARK    6  A    between atoms: C_17  and  O_18 
REMARK    7  A    between atoms: O_18  and  P_19 
REMARK    8  A    between atoms: P_19  and  O_21 
REMARK    9  A    between atoms: P_19  and  O_22 
REMARK   10  A    between atoms: O_22  and  P_23 
REMARK   11  A    between atoms: P_23  and  O_25 
REMARK   12  A    between atoms: P_23  and  O_26 
ROOT
ATOM      1  N   UNL d   1      -2.773  -2.415   0.041  0.00  0.00    -0.349 N 
ATOM      2  C   UNL d   1      -3.538  -3.487  -0.093  0.00  0.00     0.141 A 
ATOM      3  S   UNL d   1      -5.195  -3.092  -0.031  0.00  0.00    -0.087 SA
ATOM      4  C   UNL d   1      -4.853  -1.411   0.140  0.00  0.00     0.008 A 
ATOM      5  C   UNL d   1      -3.479  -1.221   0.243  0.00  0.00     0.021 A 
ATOM      6  C   UNL d   1      -2.772   0.066   0.468  0.00  0.00     0.069 C 
ENDROOT
BRANCH   4   7
ATOM      7  C   UNL d   1      -5.995  -0.416   0.054  0.00  0.00     0.075 C 
BRANCH   7   8
ATOM      8  C   UNL d   1      -6.190  -0.021  -1.412  0.00  0.00     0.185 C 
BRANCH   8   9
ATOM      9  O   UNL d   1      -7.239   0.925  -1.676  0.00  0.00    -0.296 OA
BRANCH   9  10
ATOM     10  P   UNL d   1      -7.397   1.357  -3.343  0.00  0.00     0.401 P 
ATOM     11  O   UNL d   1      -5.885   1.253  -3.582  0.00  0.00    -0.631 OA
BRANCH  10  12
ATOM     12  O   UNL d   1      -8.067  -0.113  -3.657  0.00  0.00    -0.307 OA
ATOM     13  H   UNL d   1      -9.035  -0.114  -3.531  0.00  0.00     0.222 HD
ENDBRANCH  10  12
BRANCH  10  14
ATOM     14  O   UNL d   1      -7.556   1.789  -5.011  0.00  0.00    -0.195 OA
BRANCH  14  15
ATOM     15  P   UNL d   1      -8.379   3.305  -5.138  0.00  0.00     0.399 P 
ATOM     16  O   UNL d   1      -8.511   3.476  -3.628  0.00  0.00    -0.631 OA
BRANCH  15  17
ATOM     17  O   UNL d   1      -7.012   4.031  -5.621  0.00  0.00    -0.307 OA
ATOM     18  H   UNL d   1      -6.493   4.374  -4.874  0.00  0.00     0.222 HD
ENDBRANCH  15  17
BRANCH  15  19
ATOM     19  O   UNL d   1      -9.201   4.822  -5.266  0.00  0.00    -0.307 OA
ATOM     20  H   UNL d   1     -10.150   4.715  -5.076  0.00  0.00     0.222 HD
ENDBRANCH  15  19
ENDBRANCH  14  15
ENDBRANCH  10  14
ENDBRANCH   9  10
ENDBRANCH   8   9
ENDBRANCH   7   8
ENDBRANCH   4   7
BRANCH   1  21
ATOM     21  C   UNL d   1      -1.306  -2.585   0.026  0.00  0.00     0.172 C 
BRANCH  21  22
ATOM     22  C   UNL d   1      -0.672  -2.464  -1.327  0.00  0.00     0.018 C 
ATOM     23  C   UNL d   1       0.678  -2.725  -1.507  0.00  0.00     0.112 C 
ATOM     24  N   UNL d   1       1.335  -2.442  -2.639  0.00  0.00    -0.222 NA
ATOM     25  C   UNL d   1       0.627  -1.906  -3.647  0.00  0.00     0.123 C 
ATOM     26  N   UNL d   1      -0.706  -1.762  -3.623  0.00  0.00    -0.245 NA
ATOM     27  C   UNL d   1       1.371  -1.384  -4.838  0.00  0.00     0.093 C 
ATOM     28  C   UNL d   1      -1.327  -2.058  -2.470  0.00  0.00     0.131 C 
BRANCH  23  29
ATOM     29  N   UNL d   1       1.446  -3.364  -0.536  0.00  0.00    -0.286 NA
ATOM     30  H   UNL d   1       2.371  -3.493  -0.949  0.00  0.00     0.125 HD
ATOM     31  H   UNL d   1       1.547  -2.868   0.339  0.00  0.00     0.125 HD
ENDBRANCH  23  29
ENDBRANCH  21  22
ENDBRANCH   1  21
TORSDOF 12
