@<TRIPOS>MOLECULE
ligand.pdb
 54 56 0 0 0
SMALL
GASTEIGER

@<TRIPOS>ATOM
      1 N           0.9324   -0.1850    0.0265 N.am    1  UNL1        0.0423
      2 C           2.2013   -0.0336   -0.2065 C.2     1  UNL1        0.3194
      3 C           3.0936   -1.1604   -0.6928 C.3     1  UNL1        0.2271
      4 H           3.6922   -1.4936    0.1658 H       1  UNL1        0.0768
      5 C           2.2913   -2.3617   -1.1368 C.2     1  UNL1        0.2585
      6 O           2.7017   -3.2392   -1.8921 O.2     1  UNL1       -0.2723
      7 N           1.0527   -2.4574   -0.5746 N.am    1  UNL1       -0.2142
      8 C           0.3007   -1.3632   -0.2790 C.2     1  UNL1        0.4398
      9 O          -0.9230   -1.4546   -0.3404 O.2     1  UNL1       -0.2192
     10 N           4.0075   -0.7107   -1.7576 N.2     1  UNL1       -0.2590
     11 C           4.3983    0.5246   -1.7228 C.2     1  UNL1        0.0842
     12 C           5.3150    0.9997   -2.7879 C.2     1  UNL1       -0.0333
     13 C           5.3228    2.3095   -3.0943 C.2     1  UNL1       -0.0459
     14 C           6.2668    2.8232   -4.1450 C.3     1  UNL1       -0.0394
     15 C           4.4060    3.2424   -2.4354 C.2     1  UNL1       -0.0472
     16 C           3.8152    2.8861   -1.2790 C.2     1  UNL1       -0.0326
     17 C           4.0381    1.5521   -0.6319 C.3     1  UNL1        0.1516
     18 H           4.8870    1.6199    0.0563 H       1  UNL1        0.0877
     19 N           2.8229    1.1706    0.0788 N.pl3   1  UNL1       -0.2091
     20 C           2.5734    1.8093    1.3753 C.3     1  UNL1        0.1095
     21 C           3.1476    0.9443    2.5182 C.3     1  UNL1        0.1192
     22 H           2.6710   -0.0441    2.5065 H       1  UNL1        0.0658
     23 O           4.5610    0.7414    2.3545 O.3     1  UNL1       -0.3854
     24 C           2.8726    1.6096    3.8706 C.3     1  UNL1        0.1125
     25 H           3.3328    2.6061    3.8865 H       1  UNL1        0.0647
     26 O           1.4546    1.7404    3.9631 O.3     1  UNL1       -0.3865
     27 C           3.4711    0.7645    5.0272 C.3     1  UNL1        0.1074
     28 H           2.9915   -0.2223    5.0271 H       1  UNL1        0.0643
     29 O           4.8865    0.5762    4.9144 O.3     1  UNL1       -0.3868
     30 C           3.2403    1.4144    6.3794 C.3     1  UNL1        0.0875
     31 O           1.8581    1.5791    6.6058 O.3     1  UNL1       -0.2841
     32 P           1.5522    2.3465    8.1258 P.3     1  UNL1        0.4724
     33 O           1.6376    3.7374    7.5003 O.2     1  UNL1       -0.2275
     34 O          -0.0088    1.8978    8.0710 O.3     1  UNL1       -0.3026
     35 O           1.2463    3.1139    9.6458 O.3     1  UNL1       -0.3026
     36 C           4.0773    4.5810   -3.0366 C.3     1  UNL1       -0.0396
     37 H           0.5052   -3.2405   -0.8906 H       1  UNL1        0.1614
     38 H           5.9296    0.2567   -3.2812 H       1  UNL1        0.0639
     39 H           6.9894    2.0588   -4.4512 H       1  UNL1        0.0278
     40 H           6.8421    3.6749   -3.7657 H       1  UNL1        0.0278
     41 H           5.7187    3.1314   -5.0411 H       1  UNL1        0.0278
     42 H           3.1303    3.5784   -0.7957 H       1  UNL1        0.0619
     43 H           1.4955    1.9655    1.4999 H       1  UNL1        0.0753
     44 H           3.0391    2.8016    1.4048 H       1  UNL1        0.0753
     45 H           4.6602    0.0765    1.6498 H       1  UNL1        0.2101
     46 H           1.2456    2.6456    4.2597 H       1  UNL1        0.2100
     47 H           5.0996    0.5459    3.9578 H       1  UNL1        0.2100
     48 H           3.7468    2.3858    6.4277 H       1  UNL1        0.0592
     49 H           3.6653    0.7928    7.1767 H       1  UNL1        0.0592
     50 H          -0.1648    1.0254    8.4708 H       1  UNL1        0.2220
     51 H           0.8344    3.9580    9.3640 H       1  UNL1        0.2220
     52 H           4.5928    4.7792   -3.9782 H       1  UNL1        0.0278
     53 H           4.3409    5.3854   -2.3416 H       1  UNL1        0.0278
     54 H           3.0021    4.6420   -3.2425 H       1  UNL1        0.0278
@<TRIPOS>BOND
     1     1     2    2
     2     1     8    1
     3     2     3    1
     4     2    19    1
     5     3     4    1
     6     3     5    1
     7     3    10    1
     8     5     6    2
     9     5     7   am
    10     7     8   am
    11     7    37    1
    12     8     9    2
    13    10    11    2
    14    11    12    1
    15    11    17    1
    16    12    13    2
    17    12    38    1
    18    13    14    1
    19    13    15    1
    20    14    39    1
    21    14    40    1
    22    14    41    1
    23    15    16    2
    24    15    36    1
    25    16    17    1
    26    16    42    1
    27    17    18    1
    28    17    19    1
    29    19    20    1
    30    20    21    1
    31    20    43    1
    32    20    44    1
    33    21    22    1
    34    21    23    1
    35    21    24    1
    36    23    45    1
    37    24    25    1
    38    24    26    1
    39    24    27    1
    40    26    46    1
    41    27    28    1
    42    27    29    1
    43    27    30    1
    44    29    47    1
    45    30    31    1
    46    30    48    1
    47    30    49    1
    48    31    32    1
    49    32    33    2
    50    32    34    1
    51    32    35    1
    52    34    50    1
    53    35    51    1
    54    36    52    1
    55    36    53    1
    56    36    54    1
