ligand.pdb
 OpenBabel03221816523D

 54 56  0  0  1  0  0  0  0  0999 V2000
    0.9324   -0.1850    0.0265 N   0  0  0  0  0  0  0  0  0  0  0  0
    2.2013   -0.0336   -0.2065 C   0  0  0  0  0  0  0  0  0  0  0  0
    3.0936   -1.1604   -0.6928 C   0  0  1  0  0  0  0  0  0  0  0  0
    3.6922   -1.4936    0.1658 H   0  0  0  0  0  0  0  0  0  0  0  0
    2.2913   -2.3617   -1.1368 C   0  0  0  0  0  0  0  0  0  0  0  0
    2.7017   -3.2392   -1.8921 O   0  0  0  0  0  0  0  0  0  0  0  0
    1.0527   -2.4574   -0.5746 N   0  0  0  0  0  0  0  0  0  0  0  0
    0.3007   -1.3632   -0.2790 C   0  0  0  0  0  0  0  0  0  0  0  0
   -0.9230   -1.4546   -0.3404 O   0  0  0  0  0  0  0  0  0  0  0  0
    4.0075   -0.7107   -1.7576 N   0  0  0  0  0  0  0  0  0  0  0  0
    4.3983    0.5246   -1.7228 C   0  0  0  0  0  0  0  0  0  0  0  0
    5.3150    0.9997   -2.7879 C   0  0  0  0  0  0  0  0  0  0  0  0
    5.3228    2.3095   -3.0943 C   0  0  0  0  0  0  0  0  0  0  0  0
    6.2668    2.8232   -4.1450 C   0  0  0  0  0  0  0  0  0  0  0  0
    4.4060    3.2424   -2.4354 C   0  0  0  0  0  0  0  0  0  0  0  0
    3.8152    2.8861   -1.2790 C   0  0  0  0  0  0  0  0  0  0  0  0
    4.0381    1.5521   -0.6319 C   0  0  1  0  0  0  0  0  0  0  0  0
    4.8870    1.6199    0.0563 H   0  0  0  0  0  0  0  0  0  0  0  0
    2.8229    1.1706    0.0788 N   0  0  0  0  0  0  0  0  0  0  0  0
    2.5734    1.8093    1.3753 C   0  0  0  0  0  0  0  0  0  0  0  0
    3.1476    0.9443    2.5182 C   0  0  1  0  0  0  0  0  0  0  0  0
    2.6710   -0.0441    2.5065 H   0  0  0  0  0  0  0  0  0  0  0  0
    4.5610    0.7414    2.3545 O   0  0  0  0  0  0  0  0  0  0  0  0
    2.8726    1.6096    3.8706 C   0  0  1  0  0  0  0  0  0  0  0  0
    3.3328    2.6061    3.8865 H   0  0  0  0  0  0  0  0  0  0  0  0
    1.4546    1.7404    3.9631 O   0  0  0  0  0  0  0  0  0  0  0  0
    3.4711    0.7645    5.0272 C   0  0  1  0  0  0  0  0  0  0  0  0
    2.9915   -0.2223    5.0271 H   0  0  0  0  0  0  0  0  0  0  0  0
    4.8865    0.5762    4.9144 O   0  0  0  0  0  0  0  0  0  0  0  0
    3.2403    1.4144    6.3794 C   0  0  0  0  0  0  0  0  0  0  0  0
    1.8581    1.5791    6.6058 O   0  0  0  0  0  0  0  0  0  0  0  0
    1.5522    2.3465    8.1258 P   0  0  0  0  0  0  0  0  0  0  0  0
    1.6376    3.7374    7.5003 O   0  0  0  0  0  0  0  0  0  0  0  0
   -0.0088    1.8978    8.0710 O   0  0  0  0  0  0  0  0  0  0  0  0
    1.2463    3.1139    9.6458 O   0  0  0  0  0  0  0  0  0  0  0  0
    4.0773    4.5810   -3.0366 C   0  0  0  0  0  0  0  0  0  0  0  0
    0.5052   -3.2405   -0.8906 H   0  0  0  0  0  0  0  0  0  0  0  0
    5.9296    0.2567   -3.2812 H   0  0  0  0  0  0  0  0  0  0  0  0
    6.9894    2.0588   -4.4512 H   0  0  0  0  0  0  0  0  0  0  0  0
    6.8421    3.6749   -3.7657 H   0  0  0  0  0  0  0  0  0  0  0  0
    5.7187    3.1314   -5.0411 H   0  0  0  0  0  0  0  0  0  0  0  0
    3.1303    3.5784   -0.7957 H   0  0  0  0  0  0  0  0  0  0  0  0
    1.4955    1.9655    1.4999 H   0  0  0  0  0  0  0  0  0  0  0  0
    3.0391    2.8016    1.4048 H   0  0  0  0  0  0  0  0  0  0  0  0
    4.6602    0.0765    1.6498 H   0  0  0  0  0  0  0  0  0  0  0  0
    1.2456    2.6456    4.2597 H   0  0  0  0  0  0  0  0  0  0  0  0
    5.0996    0.5459    3.9578 H   0  0  0  0  0  0  0  0  0  0  0  0
    3.7468    2.3858    6.4277 H   0  0  0  0  0  0  0  0  0  0  0  0
    3.6653    0.7928    7.1767 H   0  0  0  0  0  0  0  0  0  0  0  0
   -0.1648    1.0254    8.4708 H   0  0  0  0  0  0  0  0  0  0  0  0
    0.8344    3.9580    9.3640 H   0  0  0  0  0  0  0  0  0  0  0  0
    4.5928    4.7792   -3.9782 H   0  0  0  0  0  0  0  0  0  0  0  0
    4.3409    5.3854   -2.3416 H   0  0  0  0  0  0  0  0  0  0  0  0
    3.0021    4.6420   -3.2425 H   0  0  0  0  0  0  0  0  0  0  0  0
  1  2  2  0  0  0  0
  1  8  1  0  0  0  0
  2  3  1  0  0  0  0
  2 19  1  0  0  0  0
  3  4  1  1  0  0  0
  3  5  1  0  0  0  0
  3 10  1  0  0  0  0
  5  6  2  0  0  0  0
  5  7  1  0  0  0  0
  7  8  1  0  0  0  0
  7 37  1  0  0  0  0
  8  9  2  0  0  0  0
 10 11  2  0  0  0  0
 11 12  1  0  0  0  0
 11 17  1  0  0  0  0
 12 13  2  0  0  0  0
 12 38  1  0  0  0  0
 13 14  1  0  0  0  0
 13 15  1  0  0  0  0
 14 39  1  0  0  0  0
 14 40  1  0  0  0  0
 14 41  1  0  0  0  0
 15 16  2  0  0  0  0
 15 36  1  0  0  0  0
 16 17  1  0  0  0  0
 16 42  1  0  0  0  0
 17 18  1  1  0  0  0
 17 19  1  0  0  0  0
 19 20  1  0  0  0  0
 20 21  1  0  0  0  0
 20 43  1  0  0  0  0
 20 44  1  0  0  0  0
 21 22  1  6  0  0  0
 21 23  1  0  0  0  0
 21 24  1  0  0  0  0
 23 45  1  0  0  0  0
 24 25  1  1  0  0  0
 24 26  1  0  0  0  0
 24 27  1  0  0  0  0
 26 46  1  0  0  0  0
 27 28  1  6  0  0  0
 27 29  1  0  0  0  0
 27 30  1  0  0  0  0
 29 47  1  0  0  0  0
 30 31  1  0  0  0  0
 30 48  1  0  0  0  0
 30 49  1  0  0  0  0
 31 32  1  0  0  0  0
 32 33  2  0  0  0  0
 32 34  1  0  0  0  0
 32 35  1  0  0  0  0
 34 50  1  0  0  0  0
 35 51  1  0  0  0  0
 36 52  1  0  0  0  0
 36 53  1  0  0  0  0
 36 54  1  0  0  0  0
M  END
$$$$
