@<TRIPOS>MOLECULE
3GLP_GOL_A_10
 14 13 0 0 0
SMALL
GASTEIGER

@<TRIPOS>ATOM
      1 C           0.9990   -0.0946   -0.0039 C.3     1  UNL1        0.0723
      2 O           0.4030    0.9152    0.8081 O.3     1  UNL1       -0.3924
      3 C           2.5247    0.0486    0.0158 C.3     1  UNL1        0.1012
      4 O           2.8375    1.3932   -0.3826 O.3     1  UNL1       -0.3873
      5 C           3.1236   -0.2397    1.3972 C.3     1  UNL1        0.0723
      6 O           4.5487   -0.0632    1.3253 O.3     1  UNL1       -0.3924
      7 H           0.6213    0.0334   -1.0172 H       1  UNL1        0.0583
      8 H           0.6892   -1.0790    0.3668 H       1  UNL1        0.0583
      9 H           0.7463    1.7518    0.4454 H       1  UNL1        0.2095
     10 H           2.9739   -0.6246   -0.7232 H       1  UNL1        0.0639
     11 H           3.5146    1.7171    0.2415 H       1  UNL1        0.2100
     12 H           2.9025   -1.2572    1.7330 H       1  UNL1        0.0583
     13 H           2.7560    0.4715    2.1454 H       1  UNL1        0.0583
     14 H           4.8886   -0.7006    0.6756 H       1  UNL1        0.2095
@<TRIPOS>BOND
     1     1     2    1
     2     1     3    1
     3     1     7    1
     4     1     8    1
     5     2     9    1
     6     3     4    1
     7     3     5    1
     8     3    10    1
     9     4    11    1
    10     5     6    1
    11     5    12    1
    12     5    13    1
    13     6    14    1
