REMARK  5 active torsions:
REMARK  status: ('A' for Active; 'I' for Inactive)
REMARK    1  A    between atoms: C_1  and  O_2 
REMARK    2  A    between atoms: C_1  and  C_3 
REMARK    3  A    between atoms: C_3  and  O_4 
REMARK    4  A    between atoms: C_3  and  C_5 
REMARK    5  A    between atoms: C_5  and  O_6 
ROOT
ATOM      1  C   UNL d   1       2.525   0.049   0.016  0.00  0.00     0.165 C 
ENDROOT
BRANCH   1   2
ATOM      2  C   UNL d   1       0.999  -0.095  -0.004  0.00  0.00     0.198 C 
BRANCH   2   3
ATOM      3  O   UNL d   1       0.403   0.915   0.808  0.00  0.00    -0.398 OA
ATOM      4  H   UNL d   1       0.746   1.752   0.445  0.00  0.00     0.209 HD
ENDBRANCH   2   3
ENDBRANCH   1   2
BRANCH   1   5
ATOM      5  O   UNL d   1       2.837   1.393  -0.383  0.00  0.00    -0.391 OA
ATOM      6  H   UNL d   1       3.515   1.717   0.241  0.00  0.00     0.210 HD
ENDBRANCH   1   5
BRANCH   1   7
ATOM      7  C   UNL d   1       3.124  -0.240   1.397  0.00  0.00     0.198 C 
BRANCH   7   8
ATOM      8  O   UNL d   1       4.549  -0.063   1.325  0.00  0.00    -0.398 OA
ATOM      9  H   UNL d   1       4.889  -0.701   0.676  0.00  0.00     0.209 HD
ENDBRANCH   7   8
ENDBRANCH   1   7
TORSDOF 5
