@<TRIPOS>MOLECULE
3GX2_SFG_A_301
 27 29 0 0 0
SMALL
GASTEIGER
****
Coordinates from PDB:3GX2:A:301 Model:1 without hydrogens
@<TRIPOS>ATOM
      1 N          49.0670   58.4910   28.9060 N.3     1  UNL1       -0.1208
      2 CA         48.7870   57.2300   28.2230 C.3     1  UNL1        0.1944
      3 C          47.7060   57.3330   27.1450 C.2     1  UNL1        0.3819
      4 O          47.3730   56.3470   26.5760 O.co2   1  UNL1       -0.2441
      5 OXT        46.8200   58.4280   27.1860 O.co2   1  UNL1       -0.2441
      6 C          48.5880   56.0210   29.1610 C.3     1  UNL1        0.0321
      7 C          49.6420   54.8790   29.1690 C.3     1  UNL1        0.0212
      8 C          49.1670   53.5280   29.7670 C.3     1  UNL1        0.0944
      9 N          48.6130   52.6230   28.7600 N.3     1  UNL1       -0.1328
     10 C          48.2270   53.7260   30.9960 C.3     1  UNL1        0.0513
     11 C          48.8130   54.3930   32.2860 C.3     1  UNL1        0.1517
     12 O          49.5660   55.6360   32.1630 O.3     1  UNL1       -0.3332
     13 C          47.8210   54.6530   33.4540 C.3     1  UNL1        0.2136
     14 O          47.2560   53.5150   34.1180 O.3     1  UNL1       -0.2176
     15 C          48.4790   55.7830   34.3050 C.3     1  UNL1        0.2336
     16 O          48.9790   55.4470   35.5770 O.3     1  UNL1       -0.2155
     17 C          49.4130   56.4630   33.2990 C.3     1  UNL1        0.2408
     18 N          48.9370   57.8240   32.9170 N.ar    1  UNL1       -0.2693
     19 C          49.7110   59.0190   32.9710 C.ar    1  UNL1        0.1816
     20 N          48.9090   60.0970   32.5280 N.ar    1  UNL1       -0.2193
     21 C          47.6110   59.5680   32.1870 C.ar    1  UNL1        0.1518
     22 C          46.4060   60.2110   31.6820 C.ar    1  UNL1        0.1919
     23 N          46.3830   61.6530   31.4340 N.pl3   1  UNL1       -0.1054
     24 N          45.2870   59.4630   31.4380 N.ar    1  UNL1       -0.2040
     25 C          45.2990   58.0830   31.6710 C.ar    1  UNL1        0.2016
     26 N          46.5080   57.4370   32.1770 N.ar    1  UNL1       -0.2048
     27 C          47.6310   58.1800   32.4260 C.ar    1  UNL1        0.1692
@<TRIPOS>BOND
     1     2     1    1
     2     2     3    1
     3     2     6    1
     4     3     4   ar
     5     3     5   ar
     6     6     7    1
     7     7     8    1
     8     8     9    1
     9     8    10    1
    10    11    10    1
    11    11    12    1
    12    11    13    1
    13    12    17    1
    14    13    14    1
    15    13    15    1
    16    15    16    1
    17    15    17    1
    18    17    18    1
    19    18    19   ar
    20    18    27   ar
    21    19    20   ar
    22    20    21   ar
    23    21    22   ar
    24    21    27   ar
    25    22    23    1
    26    22    24   ar
    27    24    25   ar
    28    25    26   ar
    29    26    27   ar
