3GX2_SFG_A_301
 OpenBabel10091713573D
Coordinates from PDB:3GX2:A:301 Model:1 without hydrogens
 50 52  0  0  1  0  0  0  0  0999 V2000
   49.0670   58.4910   28.9060 N   0  0  0  0  0  0  0  0  0  0  0  0
   48.7870   57.2300   28.2230 C   0  0  2  0  0  0  0  0  0  0  0  0
   47.7060   57.3330   27.1450 C   0  0  0  0  0  0  0  0  0  0  0  0
   47.3730   56.3470   26.5760 O   0  0  0  0  0  0  0  0  0  0  0  0
   46.8200   58.4280   27.1860 O   0  0  0  0  0  0  0  0  0  0  0  0
   48.5880   56.0210   29.1610 C   0  0  0  0  0  0  0  0  0  0  0  0
   49.6420   54.8790   29.1690 C   0  0  0  0  0  0  0  0  0  0  0  0
   49.1670   53.5280   29.7670 C   0  0  2  0  0  0  0  0  0  0  0  0
   48.6130   52.6230   28.7600 N   0  0  0  0  0  0  0  0  0  0  0  0
   48.2270   53.7260   30.9960 C   0  0  0  0  0  0  0  0  0  0  0  0
   48.8130   54.3930   32.2860 C   0  0  1  0  0  0  0  0  0  0  0  0
   49.5660   55.6360   32.1630 O   0  0  0  0  0  0  0  0  0  0  0  0
   47.8210   54.6530   33.4540 C   0  0  1  0  0  0  0  0  0  0  0  0
   47.2560   53.5150   34.1180 O   0  0  0  0  0  0  0  0  0  0  0  0
   48.4790   55.7830   34.3050 C   0  0  1  0  0  0  0  0  0  0  0  0
   48.9790   55.4470   35.5770 O   0  0  0  0  0  0  0  0  0  0  0  0
   49.4130   56.4630   33.2990 C   0  0  2  0  0  0  0  0  0  0  0  0
   48.9370   57.8240   32.9170 N   0  0  0  0  0  0  0  0  0  0  0  0
   49.7110   59.0190   32.9710 C   0  0  0  0  0  0  0  0  0  0  0  0
   48.9090   60.0970   32.5280 N   0  0  0  0  0  0  0  0  0  0  0  0
   47.6110   59.5680   32.1870 C   0  0  0  0  0  0  0  0  0  0  0  0
   46.4060   60.2110   31.6820 C   0  0  0  0  0  0  0  0  0  0  0  0
   46.3830   61.6530   31.4340 N   0  0  0  0  0  0  0  0  0  0  0  0
   45.2870   59.4630   31.4380 N   0  0  0  0  0  0  0  0  0  0  0  0
   45.2990   58.0830   31.6710 C   0  0  0  0  0  0  0  0  0  0  0  0
   46.5080   57.4370   32.1770 N   0  0  0  0  0  0  0  0  0  0  0  0
   47.6310   58.1800   32.4260 C   0  0  0  0  0  0  0  0  0  0  0  0
   49.1841   59.2328   28.2158 H   0  0  0  0  0  0  0  0  0  0  0  0
   49.9223   58.3983   29.4539 H   0  0  0  0  0  0  0  0  0  0  0  0
   49.6966   57.0225   27.6991 H   0  0  0  0  0  0  0  0  0  0  0  0
   47.0674   59.2144   27.6313 H   0  0  0  0  0  0  0  0  0  0  0  0
   47.6495   55.5770   28.9021 H   0  0  0  0  0  0  0  0  0  0  0  0
   48.6690   56.4455   30.1398 H   0  0  0  0  0  0  0  0  0  0  0  0
   50.4838   55.2128   29.7389 H   0  0  0  0  0  0  0  0  0  0  0  0
   49.8644   54.6806   28.1413 H   0  0  0  0  0  0  0  0  0  0  0  0
   50.0424   53.0369   30.1376 H   0  0  0  0  0  0  0  0  0  0  0  0
   47.7682   53.0334   28.3620 H   0  0  0  0  0  0  0  0  0  0  0  0
   48.3844   51.7292   29.1951 H   0  0  0  0  0  0  0  0  0  0  0  0
   47.8664   52.7585   31.2768 H   0  0  0  0  0  0  0  0  0  0  0  0
   47.4908   54.4224   30.6527 H   0  0  0  0  0  0  0  0  0  0  0  0
   49.4855   53.5883   32.4983 H   0  0  0  0  0  0  0  0  0  0  0  0
   46.8736   54.9899   33.0881 H   0  0  0  0  0  0  0  0  0  0  0  0
   47.9612   53.0131   34.5558 H   0  0  0  0  0  0  0  0  0  0  0  0
   47.7601   56.4701   34.6999 H   0  0  0  0  0  0  0  0  0  0  0  0
   49.6904   54.7943   35.4827 H   0  0  0  0  0  0  0  0  0  0  0  0
   50.3657   56.5983   33.7670 H   0  0  0  0  0  0  0  0  0  0  0  0
   50.6928   59.0869   33.2815 H   0  0  0  0  0  0  0  0  0  0  0  0
   47.1860   62.1953   31.6082 H   0  0  0  0  0  0  0  0  0  0  0  0
   45.5645   62.0808   31.0930 H   0  0  0  0  0  0  0  0  0  0  0  0
   44.4534   57.5213   31.4853 H   0  0  0  0  0  0  0  0  0  0  0  0
  1  2  1  0  0  0  0
  1 28  1  0  0  0  0
  1 29  1  0  0  0  0
  2  3  1  0  0  0  0
  2  6  1  0  0  0  0
  2 30  1  6  0  0  0
  3  4  2  0  0  0  0
  3  5  1  0  0  0  0
  5 31  1  0  0  0  0
  6  7  1  0  0  0  0
  6 32  1  0  0  0  0
  6 33  1  0  0  0  0
  7  8  1  0  0  0  0
  7 34  1  0  0  0  0
  7 35  1  0  0  0  0
  8  9  1  0  0  0  0
  8 10  1  0  0  0  0
  8 36  1  1  0  0  0
  9 37  1  0  0  0  0
  9 38  1  0  0  0  0
 10 11  1  0  0  0  0
 10 39  1  0  0  0  0
 10 40  1  0  0  0  0
 11 12  1  0  0  0  0
 11 13  1  0  0  0  0
 11 41  1  1  0  0  0
 12 17  1  0  0  0  0
 13 14  1  0  0  0  0
 13 15  1  0  0  0  0
 13 42  1  6  0  0  0
 14 43  1  0  0  0  0
 15 16  1  0  0  0  0
 15 17  1  0  0  0  0
 15 44  1  1  0  0  0
 16 45  1  0  0  0  0
 17 18  1  0  0  0  0
 17 46  1  1  0  0  0
 18 19  1  0  0  0  0
 18 27  1  0  0  0  0
 19 20  2  0  0  0  0
 19 47  1  0  0  0  0
 20 21  1  0  0  0  0
 21 22  2  0  0  0  0
 21 27  1  0  0  0  0
 22 23  1  0  0  0  0
 22 24  1  0  0  0  0
 23 48  1  0  0  0  0
 23 49  1  0  0  0  0
 24 25  2  0  0  0  0
 25 26  1  0  0  0  0
 25 50  1  0  0  0  0
 26 27  2  0  0  0  0
M  END
$$$$
