3GX2_SFG_A_301
 OpenBabel10091713573D
Coordinates from PDB:3GX2:A:301 Model:1 without hydrogens
 27 29  0  0  0  0  0  0  0  0999 V2000
   49.0670   58.4910   28.9060 N   0  0  0  0  0  0  0  0  0  0  0  0
   48.7870   57.2300   28.2230 C   0  0  2  0  0  0  0  0  0  0  0  0
   47.7060   57.3330   27.1450 C   0  0  0  0  0  0  0  0  0  0  0  0
   47.3730   56.3470   26.5760 O   0  0  0  0  0  0  0  0  0  0  0  0
   46.8200   58.4280   27.1860 O   0  0  0  0  0  0  0  0  0  0  0  0
   48.5880   56.0210   29.1610 C   0  0  0  0  0  0  0  0  0  0  0  0
   49.6420   54.8790   29.1690 C   0  0  0  0  0  0  0  0  0  0  0  0
   49.1670   53.5280   29.7670 C   0  0  2  0  0  0  0  0  0  0  0  0
   48.6130   52.6230   28.7600 N   0  0  0  0  0  0  0  0  0  0  0  0
   48.2270   53.7260   30.9960 C   0  0  0  0  0  0  0  0  0  0  0  0
   48.8130   54.3930   32.2860 C   0  0  1  0  0  0  0  0  0  0  0  0
   49.5660   55.6360   32.1630 O   0  0  0  0  0  0  0  0  0  0  0  0
   47.8210   54.6530   33.4540 C   0  0  1  0  0  0  0  0  0  0  0  0
   47.2560   53.5150   34.1180 O   0  0  0  0  0  0  0  0  0  0  0  0
   48.4790   55.7830   34.3050 C   0  0  1  0  0  0  0  0  0  0  0  0
   48.9790   55.4470   35.5770 O   0  0  0  0  0  0  0  0  0  0  0  0
   49.4130   56.4630   33.2990 C   0  0  2  0  0  0  0  0  0  0  0  0
   48.9370   57.8240   32.9170 N   0  0  0  0  0  0  0  0  0  0  0  0
   49.7110   59.0190   32.9710 C   0  0  0  0  0  0  0  0  0  0  0  0
   48.9090   60.0970   32.5280 N   0  0  0  0  0  0  0  0  0  0  0  0
   47.6110   59.5680   32.1870 C   0  0  0  0  0  0  0  0  0  0  0  0
   46.4060   60.2110   31.6820 C   0  0  0  0  0  0  0  0  0  0  0  0
   46.3830   61.6530   31.4340 N   0  0  0  0  0  0  0  0  0  0  0  0
   45.2870   59.4630   31.4380 N   0  0  0  0  0  0  0  0  0  0  0  0
   45.2990   58.0830   31.6710 C   0  0  0  0  0  0  0  0  0  0  0  0
   46.5080   57.4370   32.1770 N   0  0  0  0  0  0  0  0  0  0  0  0
   47.6310   58.1800   32.4260 C   0  0  0  0  0  0  0  0  0  0  0  0
  2  1  1  1  0  0  0
  2  3  1  0  0  0  0
  2  6  1  0  0  0  0
  3  4  2  0  0  0  0
  3  5  1  0  0  0  0
  6  7  1  0  0  0  0
  7  8  1  0  0  0  0
  8  9  1  6  0  0  0
  8 10  1  0  0  0  0
 11 10  1  6  0  0  0
 11 12  1  0  0  0  0
 11 13  1  0  0  0  0
 12 17  1  0  0  0  0
 13 14  1  1  0  0  0
 13 15  1  0  0  0  0
 15 16  1  1  0  0  0
 15 17  1  0  0  0  0
 17 18  1  6  0  0  0
 18 19  1  0  0  0  0
 18 27  1  0  0  0  0
 19 20  2  0  0  0  0
 20 21  1  0  0  0  0
 21 22  1  0  0  0  0
 21 27  2  0  0  0  0
 22 23  1  0  0  0  0
 22 24  2  0  0  0  0
 24 25  1  0  0  0  0
 25 26  2  0  0  0  0
 26 27  1  0  0  0  0
A    1
N
A    2
CA
A    3
C
A    4
O
A    5
OXT
A    6
CB
A    7
CG
A    8
CD
A    9
NE
A   10
C5'
A   11
C4'
A   12
O4'
A   13
C3'
A   14
O3'
A   15
C2'
A   16
O2'
A   17
C1'
A   18
N9
A   19
C8
A   20
N7
A   21
C5
A   22
C6
A   23
N6
A   24
N1
A   25
C2
A   26
N3
A   27
C4
M  END
>  <InstanceId>
3GX2_SFG_A_301

>  <ChemCompId>
SFG

>  <PdbId>
3GX2

>  <ChainId>
A

>  <ResidueNumber>
301

>  <InsertionCode>


>  <Model>
1

>  <AltIds>


>  <MissingHeavyAtoms>
0

>  <ObservedFormula>
C15 N7 O5

>  <Name>
SINEFUNGIN

>  <SystematicName>
(2S,5S)-6-[(2R,3S,4R,5R)-5-(6-aminopurin-9-yl)-3,4-dihydroxy-oxolan-2-yl]-2,5-bis(azanyl)hexanoic acid

>  <Synonyms>
ADENOSYL-ORNITHINE

>  <Type>
NON-POLYMER

>  <Formula>
C15 H23 N7 O5

>  <MolecularWeight>
381.387

>  <ModifiedDate>
2011-06-04

>  <Parent>


>  <OneLetterCode>


>  <SubcomponentList>


>  <AmbiguousFlag>
N

>  <InChI>
InChI=1S/C15H23N7O5/c16-6(1-2-7(17)15(25)26)3-8-10(23)11(24)14(27-8)22-5-21-9-12(18)19-4-20-13(9)22/h4-8,10-11,14,23-24H,1-3,16-17H2,(H,25,26)(H2,18,19,20)/t6-,7-,8+,10+,11+,14+/m0/s1

>  <InChIKey>
LMXOHSDXUQEUSF-YECHIGJVSA-N

>  <SMILES>
c1nc(c2c(n1)n(cn2)[C@H]3[C@@H]([C@@H]([C@H](O3)C[C@H](CC[C@@H](C(=O)O)N)N)O)O)N

$$$$
