2O3X_N30_B_1
 OpenBabel10091713573D
Coordinates from PDB:2O3X:B:1 Model:1 without hydrogens
 31 33  0  0  0  0  0  0  0  0999 V2000
   20.3660    9.3240    5.6650 C   0  0  2  0  0  0  0  0  0  0  0  0
   21.2440    8.2520    5.2970 O   0  0  0  0  0  0  0  0  0  0  0  0
   18.9460    9.0160    5.0930 C   0  0  2  0  0  0  0  0  0  0  0  0
   18.5110    7.6280    5.3930 N   0  0  0  0  0  0  0  0  0  0  0  0
   18.8940    9.2120    3.5660 C   0  0  1  0  0  0  0  0  0  0  0  0
   17.5960    8.9790    3.0810 O   0  0  0  0  0  0  0  0  0  0  0  0
   19.3500   10.6180    3.2140 C   0  0  2  0  0  0  0  0  0  0  0  0
   19.2820   10.8050    1.8370 O   0  0  0  0  0  0  0  0  0  0  0  0
   20.8040   10.8450    3.7160 C   0  0  2  0  0  0  0  0  0  0  0  0
   20.8640   10.6330    5.1430 O   0  0  0  0  0  0  0  0  0  0  0  0
   21.3100   12.2360    3.4120 C   0  0  0  0  0  0  0  0  0  0  0  0
   22.6900   12.2760    3.3680 O   0  0  0  0  0  0  0  0  0  0  0  0
   24.6070    6.2840    7.0620 C   0  0  2  0  0  0  0  0  0  0  0  0
   25.8320    5.9870    7.8370 N   0  0  0  0  0  0  0  0  0  0  0  0
   24.8810    7.2820    5.8880 C   0  0  0  0  0  0  0  0  0  0  0  0
   23.5330    7.5090    5.1110 C   0  0  2  0  0  0  0  0  0  0  0  0
   23.7140    8.4400    3.9570 N   0  0  0  0  0  0  0  0  0  0  0  0
   22.4510    8.1020    6.0580 C   0  0  2  0  0  0  0  0  0  0  0  0
   22.1820    7.2280    7.2990 C   0  0  2  0  0  0  0  0  0  0  0  0
   21.3410    8.0550    8.1780 O   0  0  0  0  0  0  0  0  0  0  0  0
   23.5520    6.8610    8.0230 C   0  0  1  0  0  0  0  0  0  0  0  0
   23.3560    5.8740    9.0470 O   0  0  0  0  0  0  0  0  0  0  0  0
   20.6740    7.4380    9.2900 C   0  0  1  0  0  0  0  0  0  0  0  0
   20.1540    8.4770   10.3370 C   0  0  2  0  0  0  0  0  0  0  0  0
   21.0820    8.8310   11.3990 O   0  0  0  0  0  0  0  0  0  0  0  0
   18.8940    7.7440   10.7660 C   0  0  2  0  0  0  0  0  0  0  0  0
   19.2050    6.6730   11.7220 O   0  0  0  0  0  0  0  0  0  0  0  0
   18.3270    7.1720    9.4720 C   0  0  2  0  0  0  0  0  0  0  0  0
   19.5200    6.7190    8.8380 O   0  0  0  0  0  0  0  0  0  0  0  0
   17.5790    8.2070    8.5650 C   0  0  0  0  0  0  0  0  0  0  0  0
   16.4820    8.7760    9.2740 N   0  0  0  0  0  0  0  0  0  0  0  0
  1  3  1  0  0  0  0
  1 10  1  0  0  0  0
  1  2  1  6  0  0  0
  3  5  1  0  0  0  0
  3  4  1  6  0  0  0
  5  6  1  1  0  0  0
  5  7  1  0  0  0  0
  7  8  1  6  0  0  0
  7  9  1  0  0  0  0
  9 11  1  1  0  0  0
  9 10  1  0  0  0  0
 11 12  1  0  0  0  0
 13 15  1  0  0  0  0
 13 14  1  1  0  0  0
 13 21  1  0  0  0  0
 15 16  1  0  0  0  0
 16 17  1  6  0  0  0
 16 18  1  0  0  0  0
 18  2  1  6  0  0  0
 18 19  1  0  0  0  0
 19 21  1  0  0  0  0
 19 20  1  1  0  0  0
 21 22  1  1  0  0  0
 23 20  1  6  0  0  0
 23 29  1  0  0  0  0
 23 24  1  0  0  0  0
 24 26  1  0  0  0  0
 24 25  1  1  0  0  0
 26 28  1  0  0  0  0
 26 27  1  1  0  0  0
 28 30  1  6  0  0  0
 28 29  1  0  0  0  0
 30 31  1  0  0  0  0
A    1
C11
A    2
O11
A    3
C21
A    4
N21
A    5
C31
A    6
O31
A    7
C41
A    8
O41
A    9
C51
A   10
O51
A   11
C61
A   12
O61
A   13
C12
A   14
N12
A   15
C22
A   16
C32
A   17
N32
A   18
C42
A   19
C52
A   20
O52
A   21
C62
A   22
O62
A   23
C13
A   24
C23
A   25
O23
A   26
C33
A   27
O33
A   28
C43
A   29
O43
A   30
C53
A   31
N53
M  END
>  <InstanceId>
2O3X_N30_B_1

>  <ChemCompId>
N30

>  <PdbId>
2O3X

>  <ChainId>
B

>  <ResidueNumber>
1

>  <InsertionCode>


>  <Model>
1

>  <AltIds>


>  <MissingHeavyAtoms>
0

>  <ObservedFormula>
C17 N4 O10

>  <Name>
(1R,2R,3S,4R,6S)-4,6-DIAMINO-2-[(5-AMINO-5-DEOXY-BETA-D-RIBOFURANOSYL)OXY]-3-HYDROXYCYCLOHEXYL 2-AMINO-2-DEOXY-ALPHA-D-GLUCOPYRANOSIDE

>  <SystematicName>
(2R,3S,4R,5R,6S)-5-amino-6-[(1R,2R,3S,4R,6S)-4,6-diamino-2-[(2S,3R,4S,5R)-5-(aminomethyl)-3,4-dihydroxy-oxolan-2-yl]oxy-3-hydroxy-cyclohexyl]oxy-2-(hydroxymethyl)oxane-3,4-diol

>  <Synonyms>


>  <Type>
NON-POLYMER

>  <Formula>
C17 H34 N4 O10

>  <MolecularWeight>
454.473

>  <ModifiedDate>
2011-06-04

>  <Parent>


>  <OneLetterCode>


>  <SubcomponentList>


>  <AmbiguousFlag>


>  <InChI>
InChI=1S/C17H34N4O10/c18-2-6-10(24)13(27)17(28-6)31-15-9(23)4(19)1-5(20)14(15)30-16-8(21)12(26)11(25)7(3-22)29-16/h4-17,22-27H,1-3,18-21H2/t4-,5+,6-,7-,8-,9+,10-,11-,12-,13-,14-,15-,16-,17+/m1/s1

>  <InChIKey>
FNBQIDOUCINBIA-VVPCINPTSA-N

>  <SMILES>
C1[C@H]([C@@H]([C@H]([C@@H]([C@H]1N)O[C@@H]2[C@@H]([C@H]([C@@H]([C@H](O2)CO)O)O)N)O[C@H]3[C@@H]([C@@H]([C@H](O3)CN)O)O)O)N

$$$$
