@<TRIPOS>MOLECULE
2O3X_N30_B_1
 31 33 0 0 0
SMALL
GASTEIGER
****
Coordinates from PDB:2O3X:B:1 Model:1 without hydrogens
@<TRIPOS>ATOM
      1 C          20.3660    9.3240    5.6650 C.3     1  UNL1        0.2561
      2 O          21.2440    8.2520    5.2970 O.3     1  UNL1       -0.3278
      3 C          18.9460    9.0160    5.0930 C.3     1  UNL1        0.1807
      4 N          18.5110    7.6280    5.3930 N.3     1  UNL1       -0.1248
      5 C          18.8940    9.2120    3.5660 C.3     1  UNL1        0.2070
      6 O          17.5960    8.9790    3.0810 O.3     1  UNL1       -0.2186
      7 C          19.3500   10.6180    3.2140 C.3     1  UNL1        0.2133
      8 O          19.2820   10.8050    1.8370 O.3     1  UNL1       -0.2176
      9 C          20.8040   10.8450    3.7160 C.3     1  UNL1        0.1834
     10 O          20.8640   10.6330    5.1430 O.3     1  UNL1       -0.3264
     11 C          21.3100   12.2360    3.4120 C.3     1  UNL1        0.2142
     12 O          22.6900   12.2760    3.3680 O.3     1  UNL1       -0.2176
     13 C          24.6070    6.2840    7.0620 C.3     1  UNL1        0.1261
     14 N          25.8320    5.9870    7.8370 N.3     1  UNL1       -0.1301
     15 C          24.8810    7.2820    5.8880 C.3     1  UNL1        0.0433
     16 C          23.5330    7.5090    5.1110 C.3     1  UNL1        0.1230
     17 N          23.7140    8.4400    3.9570 N.3     1  UNL1       -0.1302
     18 C          22.4510    8.1020    6.0580 C.3     1  UNL1        0.1649
     19 C          22.1820    7.2280    7.2990 C.3     1  UNL1        0.1779
     20 O          21.3410    8.0550    8.1780 O.3     1  UNL1       -0.3258
     21 C          23.5520    6.8610    8.0230 C.3     1  UNL1        0.1989
     22 O          23.3560    5.8740    9.0470 O.3     1  UNL1       -0.2189
     23 C          20.6740    7.4380    9.2900 C.3     1  UNL1        0.2695
     24 C          20.1540    8.4770   10.3370 C.3     1  UNL1        0.2404
     25 O          21.0820    8.8310   11.3990 O.3     1  UNL1       -0.2149
     26 C          18.8940    7.7440   10.7660 C.3     1  UNL1        0.2156
     27 O          19.2050    6.6730   11.7220 O.3     1  UNL1       -0.2176
     28 C          18.3270    7.1720    9.4720 C.3     1  UNL1        0.1697
     29 O          19.5200    6.7190    8.8380 O.3     1  UNL1       -0.3268
     30 C          17.5790    8.2070    8.5650 C.3     1  UNL1        0.1415
     31 N          16.4820    8.7760    9.2740 N.3     1  UNL1       -0.1286
@<TRIPOS>BOND
     1     1     3    1
     2     1    10    1
     3     1     2    1
     4     3     5    1
     5     3     4    1
     6     5     6    1
     7     5     7    1
     8     7     8    1
     9     7     9    1
    10     9    11    1
    11     9    10    1
    12    11    12    1
    13    13    15    1
    14    13    14    1
    15    13    21    1
    16    15    16    1
    17    16    17    1
    18    16    18    1
    19    18     2    1
    20    18    19    1
    21    19    21    1
    22    19    20    1
    23    21    22    1
    24    23    20    1
    25    23    29    1
    26    23    24    1
    27    24    26    1
    28    24    25    1
    29    26    28    1
    30    26    27    1
    31    28    30    1
    32    28    29    1
    33    30    31    1
