2JUK_G0B_A_23
 OpenBabel03221817243D

124127  0  0  1  0  0  0  0  0999 V2000
    1.8891  -10.7042    1.2042 C   0  0  2  0  0  0  0  0  0  0  0  0
    1.8566  -10.4551    0.1384 H   0  0  0  0  0  0  0  0  0  0  0  0
    0.5197  -10.9222    1.5734 O   0  0  0  0  0  0  0  0  0  0  0  0
   -0.0193  -11.2951    2.8689 C   0  0  2  0  0  0  0  0  0  0  0  0
   -1.0696  -11.3621    2.5396 H   0  0  0  0  0  0  0  0  0  0  0  0
   -0.1394  -10.2809    4.1215 C   0  0  1  0  0  0  0  0  0  0  0  0
   -0.5557   -9.3360    3.7489 H   0  0  0  0  0  0  0  0  0  0  0  0
   -1.1980  -10.8901    5.0919 C   0  0  2  0  0  0  0  0  0  0  0  0
   -1.3224  -10.2303    5.9576 H   0  0  0  0  0  0  0  0  0  0  0  0
   -0.7061  -12.2760    5.5840 C   0  0  2  0  0  0  0  0  0  0  0  0
   -1.4218  -12.6772    6.3021 H   0  0  0  0  0  0  0  0  0  0  0  0
    0.6332  -12.1020    6.2638 N   0  0  0  0  0  0  0  0  0  0  0  0
    1.0692  -12.6167    7.4248 C   0  0  0  0  0  0  0  0  0  0  0  0
    0.2718  -13.2681    8.2402 N   0  3  0  0  0  0  0  0  0  0  0  0
    0.6019  -13.6212    9.1362 H   0  0  0  0  0  0  0  0  0  0  0  0
   -0.7315  -13.3114    8.1144 H   0  0  0  0  0  0  0  0  0  0  0  0
    2.3635  -12.4524    7.7439 N   0  0  0  0  0  0  0  0  0  0  0  0
   -0.6372  -13.2511    4.3834 C   0  0  0  0  0  0  0  0  0  0  0  0
    0.3170  -12.7520    3.3069 C   0  0  2  0  0  0  0  0  0  0  0  0
    0.2662  -13.3746    2.4058 H   0  0  0  0  0  0  0  0  0  0  0  0
    1.6787  -12.8704    3.8955 N   0  0  0  0  0  0  0  0  0  0  0  0
    2.5444  -13.8947    3.8204 C   0  0  0  0  0  0  0  0  0  0  0  0
    3.7364  -13.7440    4.4055 N   0  3  0  0  0  0  0  0  0  0  0  0
    4.4470  -14.4716    4.3772 H   0  0  0  0  0  0  0  0  0  0  0  0
    4.0560  -12.9074    4.8868 H   0  0  0  0  0  0  0  0  0  0  0  0
    2.3308  -14.9469    3.0420 N   0  0  0  0  0  0  0  0  0  0  0  0
   -2.4311  -10.9740    4.3848 O   0  0  0  0  0  0  0  0  0  0  0  0
    1.0713  -10.0002    4.9724 O   0  0  0  0  0  0  0  0  0  0  0  0
    2.0911   -9.4419    4.1616 C   0  0  1  0  0  0  0  0  0  0  0  0
    2.2125  -10.3770    3.6728 H   0  0  0  0  0  0  0  0  0  0  0  0
    1.5984   -8.0545    3.0175 C   0  0  2  0  0  0  0  0  0  0  0  0
    0.7402   -8.2138    2.3620 H   0  0  0  0  0  0  0  0  0  0  0  0
    3.3389   -7.3777    2.0969 C   0  0  1  0  0  0  0  0  0  0  0  0
    3.5580   -6.3030    1.9580 H   0  0  0  0  0  0  0  0  0  0  0  0
    4.8476   -8.1003    3.3343 C   0  0  2  0  0  0  0  0  0  0  0  0
    5.5234   -8.7055    2.7296 H   0  0  0  0  0  0  0  0  0  0  0  0
    3.8489   -9.1871    4.6009 O   0  0  0  0  0  0  0  0  0  0  0  0
    5.7972   -7.4391    4.3754 C   0  0  0  0  0  0  0  0  0  0  0  0
    6.6477   -6.5822    3.6575 O   0  0  0  0  0  0  0  0  0  0  0  0
    3.4639   -7.8973    0.6872 O   0  0  0  0  0  0  0  0  0  0  0  0
    2.3888   -7.7841   -0.2541 C   0  0  2  0  0  0  0  0  0  0  0  0
    2.6354   -8.4768   -1.0718 H   0  0  0  0  0  0  0  0  0  0  0  0
    2.5026   -6.3591   -0.7203 C   0  0  2  0  0  0  0  0  0  0  0  0
    2.3693   -5.7344    0.1704 H   0  0  0  0  0  0  0  0  0  0  0  0
    1.4085   -6.0466   -1.7169 C   0  0  1  0  0  0  0  0  0  0  0  0
    1.6373   -6.4477   -2.7097 H   0  0  0  0  0  0  0  0  0  0  0  0
    0.0322   -6.5560   -1.2346 C   0  0  2  0  0  0  0  0  0  0  0  0
   -0.2457   -5.9536   -0.3609 H   0  0  0  0  0  0  0  0  0  0  0  0
    0.0734   -8.0212   -0.8092 C   0  0  1  0  0  0  0  0  0  0  0  0
    0.3548   -8.6695   -1.6519 H   0  0  0  0  0  0  0  0  0  0  0  0
    1.0787   -8.1212    0.2112 O   0  0  0  0  0  0  0  0  0  0  0  0
   -1.3166   -8.5527   -0.3262 C   0  0  0  0  0  0  0  0  0  0  0  0
   -1.8841   -7.8584    0.8555 N   0  0  0  0  0  0  0  0  0  0  0  0
   -2.6140   -6.7206    0.8014 C   0  0  0  0  0  0  0  0  0  0  0  0
   -2.8783   -6.0932   -0.3360 N   0  3  0  0  0  0  0  0  0  0  0  0
   -3.4644   -5.2645   -0.3805 H   0  0  0  0  0  0  0  0  0  0  0  0
   -2.5549   -6.4253   -1.2476 H   0  0  0  0  0  0  0  0  0  0  0  0
   -3.0286   -6.1691    1.9498 N   0  0  0  0  0  0  0  0  0  0  0  0
   -0.9834   -6.3990   -2.2138 O   0  0  0  0  0  0  0  0  0  0  0  0
    1.3648   -4.6209   -1.7783 O   0  0  0  0  0  0  0  0  0  0  0  0
    3.8870   -6.1271   -1.2408 N   0  0  0  0  0  0  0  0  0  0  0  0
    4.6495   -5.0523   -0.9961 C   0  0  0  0  0  0  0  0  0  0  0  0
    5.9176   -5.0480   -1.3947 N   0  3  0  0  0  0  0  0  0  0  0  0
    6.5113   -4.2299   -1.2805 H   0  0  0  0  0  0  0  0  0  0  0  0
    6.3435   -5.7972   -1.9315 H   0  0  0  0  0  0  0  0  0  0  0  0
    4.1648   -4.0012   -0.3361 N   0  0  0  0  0  0  0  0  0  0  0  0
    0.8870   -7.6110    4.3340 O   0  0  0  0  0  0  0  0  0  0  0  0
    2.8120  -11.8735    1.3007 C   0  0  1  0  0  0  0  0  0  0  0  0
    2.4948  -12.3683    2.1697 H   0  0  0  0  0  0  0  0  0  0  0  0
    2.6421  -12.9410    0.3112 N   0  0  0  0  0  0  0  0  0  0  0  0
    1.5358  -13.3193   -0.3610 C   0  0  0  0  0  0  0  0  0  0  0  0
    0.3661  -12.6565   -0.3189 N   0  3  0  0  0  0  0  0  0  0  0  0
   -0.4274  -13.0054   -0.8572 H   0  0  0  0  0  0  0  0  0  0  0  0
    0.1806  -11.8116    0.1960 H   0  0  0  0  0  0  0  0  0  0  0  0
    1.5831  -14.4538   -1.0210 N   0  0  0  0  0  0  0  0  0  0  0  0
    4.2633  -11.5438    1.6341 C   0  0  2  0  0  0  0  0  0  0  0  0
    4.7631  -10.9832    0.8400 H   0  0  0  0  0  0  0  0  0  0  0  0
    4.9939  -12.7626    1.7637 O   0  0  0  0  0  0  0  0  0  0  0  0
    4.2956  -10.7441    2.9657 C   0  0  1  0  0  0  0  0  0  0  0  0
    3.7801  -11.3146    3.7264 H   0  0  0  0  0  0  0  0  0  0  0  0
    5.6148  -10.6837    3.4855 O   0  0  0  0  0  0  0  0  0  0  0  0
    3.4074   -9.2162    2.6631 C   0  0  1  0  0  0  0  0  0  0  0  0
    4.1335   -9.1302    1.8592 H   0  0  0  0  0  0  0  0  0  0  0  0
    2.2575   -9.5922    1.8354 O   0  0  0  0  0  0  0  0  0  0  0  0
    3.1346   -7.4427    3.9627 C   0  0  0  0  0  0  0  0  0  0  0  0
    2.1290   -5.9329    3.3885 N   0  0  0  0  0  0  0  0  0  0  0  0
    0.8097   -5.4367    3.2433 C   0  0  0  0  0  0  0  0  0  0  0  0
    0.5649   -4.3299    2.5486 N   0  3  0  0  0  0  0  0  0  0  0  0
   -0.3985   -4.0034    2.4984 H   0  0  0  0  0  0  0  0  0  0  0  0
    1.2468   -3.7479    2.0919 H   0  0  0  0  0  0  0  0  0  0  0  0
   -0.3244   -6.0290    3.6768 N   0  0  0  0  0  0  0  0  0  0  0  0
    1.1295  -11.2362    6.0452 H   0  0  0  0  0  0  0  0  0  0  0  0
    3.0396  -11.9057    7.2316 H   0  0  0  0  0  0  0  0  0  0  0  0
    2.7159  -12.8340    8.6232 H   0  0  0  0  0  0  0  0  0  0  0  0
   -1.6334  -13.3936    3.9442 H   0  0  0  0  0  0  0  0  0  0  0  0
   -0.2919  -14.2350    4.7154 H   0  0  0  0  0  0  0  0  0  0  0  0
    1.9948  -12.1125    4.4738 H   0  0  0  0  0  0  0  0  0  0  0  0
    1.4551  -15.1212    2.5637 H   0  0  0  0  0  0  0  0  0  0  0  0
    2.9879  -15.7256    3.0332 H   0  0  0  0  0  0  0  0  0  0  0  0
   -3.0302  -11.6299    4.8017 H   0  0  0  0  0  0  0  0  0  0  0  0
    5.3139   -6.8943    5.1942 H   0  0  0  0  0  0  0  0  0  0  0  0
    6.3458   -8.2402    4.9002 H   0  0  0  0  0  0  0  0  0  0  0  0
    7.0543   -5.9674    4.3052 H   0  0  0  0  0  0  0  0  0  0  0  0
   -1.2337   -9.6082   -0.0361 H   0  0  0  0  0  0  0  0  0  0  0  0
   -2.0624   -8.5323   -1.1300 H   0  0  0  0  0  0  0  0  0  0  0  0
   -1.9917   -8.3908    1.7094 H   0  0  0  0  0  0  0  0  0  0  0  0
   -2.9212   -6.6228    2.8447 H   0  0  0  0  0  0  0  0  0  0  0  0
   -3.6378   -5.3532    1.9300 H   0  0  0  0  0  0  0  0  0  0  0  0
   -0.6821   -5.7421   -2.8782 H   0  0  0  0  0  0  0  0  0  0  0  0
    1.9494   -4.3324   -2.5085 H   0  0  0  0  0  0  0  0  0  0  0  0
    4.4119   -6.9282   -1.5861 H   0  0  0  0  0  0  0  0  0  0  0  0
    3.1726   -3.8696   -0.2081 H   0  0  0  0  0  0  0  0  0  0  0  0
    4.7556   -3.1880   -0.1797 H   0  0  0  0  0  0  0  0  0  0  0  0
    1.3898   -7.0495    4.9744 H   0  0  0  0  0  0  0  0  0  0  0  0
    3.4828  -13.4826    0.1085 H   0  0  0  0  0  0  0  0  0  0  0  0
    2.4049  -15.0513   -1.0339 H   0  0  0  0  0  0  0  0  0  0  0  0
    0.8126  -14.7755   -1.6050 H   0  0  0  0  0  0  0  0  0  0  0  0
    4.4834  -13.4658    2.1872 H   0  0  0  0  0  0  0  0  0  0  0  0
    6.2924  -10.6160    2.7803 H   0  0  0  0  0  0  0  0  0  0  0  0
    3.9269   -6.6532    3.9903 H   0  0  0  0  0  0  0  0  0  0  0  0
    2.9967   -7.5073    5.0778 H   0  0  0  0  0  0  0  0  0  0  0  0
    2.7858   -5.1538    3.2107 H   0  0  0  0  0  0  0  0  0  0  0  0
   -0.2603   -6.9417    4.0936 H   0  0  0  0  0  0  0  0  0  0  0  0
   -1.0887   -5.4671    4.0539 H   0  0  0  0  0  0  0  0  0  0  0  0
  1 68  1  1  0  0  0
  1 84  1  0  0  0  0
  1  3  1  0  0  0  0
  1  2  1  0  0  0  0
  4  6  1  1  0  0  0
  4  5  1  0  0  0  0
  4  3  1  0  0  0  0
  6  8  1  1  0  0  0
  6 28  1  0  0  0  0
  6  7  1  0  0  0  0
  8 10  1  1  0  0  0
  8 27  1  0  0  0  0
  8  9  1  0  0  0  0
 10 11  1  1  0  0  0
 10 12  1  0  0  0  0
 10 18  1  0  0  0  0
 12 13  1  0  0  0  0
 12 92  1  0  0  0  0
 13 14  2  0  0  0  0
 13 17  1  0  0  0  0
 14 15  1  0  0  0  0
 14 16  1  0  0  0  0
 17 93  1  0  0  0  0
 17 94  1  0  0  0  0
 18 19  1  0  0  0  0
 18 95  1  0  0  0  0
 18 96  1  0  0  0  0
 19 20  1  0  0  0  0
 19  4  1  6  0  0  0
 19 21  1  0  0  0  0
 21 22  1  0  0  0  0
 21 97  1  0  0  0  0
 22 23  2  0  0  0  0
 22 26  1  0  0  0  0
 23 24  1  0  0  0  0
 23 25  1  0  0  0  0
 26 98  1  0  0  0  0
 26 99  1  0  0  0  0
 27100  1  0  0  0  0
 28 29  1  0  0  0  0
 29 30  1  0  0  0  0
 29 31  1  6  0  0  0
 29 37  1  0  0  0  0
 31 32  1  6  0  0  0
 31 67  1  0  0  0  0
 33 31  1  1  0  0  0
 33 34  1  0  0  0  0
 33 40  1  0  0  0  0
 35 33  1  6  0  0  0
 35 37  1  0  0  0  0
 35 38  1  0  0  0  0
 35 36  1  0  0  0  0
 38 39  1  0  0  0  0
 38101  1  0  0  0  0
 38102  1  0  0  0  0
 39103  1  0  0  0  0
 41 43  1  6  0  0  0
 41 51  1  0  0  0  0
 41 42  1  0  0  0  0
 41 40  1  0  0  0  0
 43 44  1  0  0  0  0
 43 45  1  6  0  0  0
 43 61  1  0  0  0  0
 45 46  1  0  0  0  0
 45 47  1  1  0  0  0
 45 60  1  0  0  0  0
 47 49  1  1  0  0  0
 47 59  1  0  0  0  0
 47 48  1  0  0  0  0
 49 50  1  6  0  0  0
 49 51  1  0  0  0  0
 49 52  1  0  0  0  0
 52 53  1  0  0  0  0
 52104  1  0  0  0  0
 52105  1  0  0  0  0
 53 54  1  0  0  0  0
 53106  1  0  0  0  0
 54 55  2  0  0  0  0
 54 58  1  0  0  0  0
 55 56  1  0  0  0  0
 55 57  1  0  0  0  0
 58107  1  0  0  0  0
 58108  1  0  0  0  0
 59109  1  0  0  0  0
 60110  1  0  0  0  0
 61 62  1  0  0  0  0
 61111  1  0  0  0  0
 62 63  2  0  0  0  0
 62 66  1  0  0  0  0
 63 64  1  0  0  0  0
 63 65  1  0  0  0  0
 66112  1  0  0  0  0
 66113  1  0  0  0  0
 67114  1  0  0  0  0
 68 69  1  0  0  0  0
 68 70  1  0  0  0  0
 68 76  1  1  0  0  0
 70 71  1  0  0  0  0
 70115  1  0  0  0  0
 71 72  2  0  0  0  0
 71 75  1  0  0  0  0
 72 73  1  0  0  0  0
 72 74  1  0  0  0  0
 75116  1  0  0  0  0
 75117  1  0  0  0  0
 76 77  1  0  0  0  0
 76 78  1  0  0  0  0
 76 79  1  1  0  0  0
 78118  1  0  0  0  0
 79 82  1  6  0  0  0
 79 81  1  0  0  0  0
 79 80  1  0  0  0  0
 81119  1  0  0  0  0
 82 83  1  6  0  0  0
 82 84  1  0  0  0  0
 82 85  1  0  0  0  0
 85 86  1  0  0  0  0
 85120  1  0  0  0  0
 85121  1  0  0  0  0
 86 87  1  0  0  0  0
 86122  1  0  0  0  0
 87 88  2  0  0  0  0
 87 91  1  0  0  0  0
 88 89  1  0  0  0  0
 88 90  1  0  0  0  0
 91123  1  0  0  0  0
 91124  1  0  0  0  0
M  CHG  6  14   1  23   1  55   1  63   1  72   1  88   1
M  END
$$$$
