1NBK_GND_A_35
 OpenBabel10091713573D
Coordinates from PDB:1NBK:A:35 Model:1 without hydrogens
 27 26  0  0  0  0  0  0  0  0999 V2000
   56.1000    0.1070   -2.5380 C   0  0  1  0  0  0  0  0  0  0  0  0
   56.8600    1.1740   -3.3270 C   0  0  0  0  0  0  0  0  0  0  0  0
   58.3410    1.0910   -2.9930 C   0  0  0  0  0  0  0  0  0  0  0  0
   59.1200    1.8650   -4.0390 C   0  0  0  0  0  0  0  0  0  0  0  0
   60.4190    2.2040   -3.4080 N   0  0  0  0  0  0  0  0  0  0  0  0
   60.5870    3.3630   -2.8470 C   0  0  0  0  0  0  0  0  0  0  0  0
   61.7670    3.7110   -2.4170 N   0  0  0  0  0  0  0  0  0  0  0  0
   59.5740    4.1610   -2.6810 N   0  0  0  0  0  0  0  0  0  0  0  0
   54.6190    0.4770   -2.4180 C   0  0  0  0  0  0  0  0  0  0  0  0
   54.2270    1.4700   -3.0080 O   0  0  0  0  0  0  0  0  0  0  0  0
   53.9040   -0.2400   -1.7390 O   0  0  0  0  0  0  0  0  0  0  0  0
   56.2550   -1.1440   -3.3340 N   0  3  0  0  0  0  0  0  0  0  0  0
   56.4757    0.0042   -1.5414 H   0  0  0  0  0  0  0  0  0  0  0  0
   56.4890    2.1430   -3.0656 H   0  0  0  0  0  0  0  0  0  0  0  0
   56.7206    1.0100   -4.3751 H   0  0  0  0  0  0  0  0  0  0  0  0
   58.6537    0.0677   -2.9954 H   0  0  0  0  0  0  0  0  0  0  0  0
   58.5198    1.5072   -2.0236 H   0  0  0  0  0  0  0  0  0  0  0  0
   58.5942    2.7563   -4.3110 H   0  0  0  0  0  0  0  0  0  0  0  0
   59.2543    1.2926   -4.9330 H   0  0  0  0  0  0  0  0  0  0  0  0
   61.1545    1.5496   -3.4146 H   0  0  0  0  0  0  0  0  0  0  0  0
   62.5344    3.1072   -2.5424 H   0  0  0  0  0  0  0  0  0  0  0  0
   58.6823    3.8987   -3.0056 H   0  0  0  0  0  0  0  0  0  0  0  0
   59.6986    5.0276   -2.2307 H   0  0  0  0  0  0  0  0  0  0  0  0
   54.8268    1.9811   -3.5149 H   0  0  0  0  0  0  0  0  0  0  0  0
   55.8842   -0.9977   -4.2729 H   0  0  0  0  0  0  0  0  0  0  0  0
   55.7435   -1.9011   -2.8806 H   0  0  0  0  0  0  0  0  0  0  0  0
   57.2433   -1.3891   -3.3932 H   0  0  0  0  0  0  0  0  0  0  0  0
  1  2  1  0  0  0  0
  1  9  1  0  0  0  0
  1 12  1  0  0  0  0
  1 13  1  1  0  0  0
  2  3  1  0  0  0  0
  2 14  1  0  0  0  0
  2 15  1  0  0  0  0
  3  4  1  0  0  0  0
  3 16  1  0  0  0  0
  3 17  1  0  0  0  0
  4  5  1  0  0  0  0
  4 18  1  0  0  0  0
  4 19  1  0  0  0  0
  5  6  1  0  0  0  0
  5 20  1  0  0  0  0
  6  7  2  0  0  0  0
  6  8  1  0  0  0  0
  7 21  1  0  0  0  0
  8 22  1  0  0  0  0
  8 23  1  0  0  0  0
  9 10  1  0  0  0  0
  9 11  2  0  0  0  0
 10 24  1  0  0  0  0
 12 25  1  0  0  0  0
 12 26  1  0  0  0  0
 12 27  1  0  0  0  0
A    1
CA
A    2
CB
A    3
CG
A    4
CD
A    5
NE
A    6
CZ
A    7
NH1
A    8
NH2
A    9
C
A   10
OXT
A   11
O
A   12
N
M  CHG  1  12   1
M  END
>  <InstanceId>
1NBK_GND_A_35

>  <ChemCompId>
GND

>  <PdbId>
1NBK

>  <ChainId>
A

>  <ResidueNumber>
35

>  <InsertionCode>


>  <Model>
1

>  <AltIds>


>  <MissingHeavyAtoms>
0

>  <ObservedFormula>
C6 N4 O2

>  <Name>
2-AMINO-5-GUANIDINO-PENTANOIC ACID

>  <SystematicName>
[(2S)-5-carbamimidamido-1-hydroxy-1-oxo-pentan-2-yl]azanium

>  <Synonyms>


>  <Type>
L-PEPTIDE LINKING

>  <Formula>
C6 H15 N4 O2

>  <MolecularWeight>
175.209

>  <ModifiedDate>
2011-06-04

>  <Parent>


>  <OneLetterCode>
X

>  <SubcomponentList>


>  <AmbiguousFlag>
N

>  <InChI>
InChI=1S/C6H14N4O2/c7-4(5(11)12)2-1-3-10-6(8)9/h4H,1-3,7H2,(H,11,12)(H4,8,9,10)/p+1/t4-/m0/s1

>  <InChIKey>
ODKSFYDXXFIFQN-BYPYZUCNSA-O

>  <SMILES>
[H]/N=C(/N)\NCCC[C@@H](C(=O)O)[NH3+]

$$$$
