@<TRIPOS>MOLECULE
1NBK_GND_A_35
 12 11 0 0 0
SMALL
GASTEIGER
****
Coordinates from PDB:1NBK:A:35 Model:1 without hydrogens
@<TRIPOS>ATOM
      1 CA         56.1000    0.1070   -2.5380 C.3     1  ARG1        0.3508
      2 CB         56.8600    1.1740   -3.3270 C.3     1  ARG1        0.0898
      3 CG         58.3410    1.0910   -2.9930 C.3     1  ARG1        0.0541
      4 CD         59.1200    1.8650   -4.0390 C.3     1  ARG1        0.2206
      5 NE         60.4190    2.2040   -3.4080 N.pl3   1  ARG1       -0.0865
      6 CZ         60.5870    3.3630   -2.8470 C.cat   1  ARG1        0.5346
      7 NH1        61.7670    3.7110   -2.4170 N.pl3   1  ARG1        0.1354
      8 NH2        59.5740    4.1610   -2.6810 N.pl3   1  ARG1        0.1354
      9 C          54.6190    0.4770   -2.4180 C.2     1  ARG1        0.4313
     10 O          54.2270    1.4700   -3.0080 O.co2   1  ARG1       -0.2386
     11 OXT        53.9040   -0.2400   -1.7390 O.co2   1  ARG1       -0.2386
     12 N          56.2550   -1.1440   -3.3340 N.4     1  ARG1        0.6017
@<TRIPOS>BOND
     1     1     2    1
     2     1     9    1
     3     1    12    1
     4     2     3    1
     5     3     4    1
     6     4     5    1
     7     5     6    1
     8     6     7    2
     9     6     8    1
    10     9    10   ar
    11     9    11   ar
