2LWK_0EC_A_101
  1228              3D

 40 42  0  0  0  0  0  0  0  0999 V2000
    1.6332    0.9345    0.5485 C   0  0  0  0  0  0  0  0  0  0  0  0
    1.0495   -0.2509    0.3575 N   0  0  0  0  0  0  0  0  0  0  0  0
   -0.2274   -0.3836    0.6952 C   0  0  0  0  0  0  0  0  0  0  0  0
   -0.9446    0.6057    1.3761 C   0  0  0  0  0  0  0  0  0  0  0  0
   -0.1889    1.7747    1.6244 C   0  0  0  0  0  0  0  0  0  0  0  0
   -0.7814    2.8902    2.2595 N   0  0  0  0  0  0  0  0  0  0  0  0
    1.1618    1.7537    1.5021 N   0  0  0  0  0  0  0  0  0  0  0  0
   -2.3285    0.3608    1.6280 C   0  0  0  0  0  0  0  0  0  0  0  0
   -2.9212   -0.8798    1.3125 C   0  0  0  0  0  0  0  0  0  0  0  0
   -2.1374   -1.8550    0.6976 C   0  0  0  0  0  0  0  0  0  0  0  0
   -0.8205   -1.5778    0.3612 C   0  0  0  0  0  0  0  0  0  0  0  0
   -2.6688   -3.0580    0.3040 O   0  0  0  0  0  0  0  0  0  0  0  0
   -1.8809   -4.1602    0.7736 C   0  0  0  0  0  0  0  0  0  0  0  0
   -4.2929   -0.8813    1.1509 O   0  0  0  0  0  0  0  0  0  0  0  0
   -4.9547   -1.8985    1.9001 C   0  0  0  0  0  0  0  0  0  0  0  0
    2.8881    1.1701   -0.0325 N   0  0  0  0  0  0  0  0  0  0  0  0
    3.8439    0.0650    0.0302 C   0  0  0  0  0  0  0  0  0  0  0  0
    3.5707   -0.9701   -1.0588 C   0  0  0  0  0  0  0  0  0  0  0  0
    3.4620   -0.4216   -2.3951 N   0  0  0  0  0  0  0  0  0  0  0  0
    3.0817    0.9744   -2.5373 C   0  0  0  0  0  0  0  0  0  0  0  0
    2.7796    1.8535   -1.3160 C   0  0  0  0  0  0  0  0  0  0  0  0
   -0.0716    3.6031    2.4093 H   0  0  0  0  0  0  0  0  0  0  0  0
   -1.5135    3.2843    1.6710 H   0  0  0  0  0  0  0  0  0  0  0  0
   -2.9124    1.0947    2.1924 H   0  0  0  0  0  0  0  0  0  0  0  0
   -0.2385   -2.3166   -0.1884 H   0  0  0  0  0  0  0  0  0  0  0  0
   -1.2176   -3.9079    1.6126 H   0  0  0  0  0  0  0  0  0  0  0  0
   -2.5487   -4.9601    1.1012 H   0  0  0  0  0  0  0  0  0  0  0  0
   -1.2762   -4.5344   -0.0610 H   0  0  0  0  0  0  0  0  0  0  0  0
   -6.0289   -1.7960    1.7127 H   0  0  0  0  0  0  0  0  0  0  0  0
   -4.7785   -1.7937    2.9737 H   0  0  0  0  0  0  0  0  0  0  0  0
   -4.6780   -2.9007    1.5640 H   0  0  0  0  0  0  0  0  0  0  0  0
    4.8546    0.4731   -0.0971 H   0  0  0  0  0  0  0  0  0  0  0  0
    3.8262   -0.4190    1.0166 H   0  0  0  0  0  0  0  0  0  0  0  0
    4.3734   -1.7153   -1.0386 H   0  0  0  0  0  0  0  0  0  0  0  0
    2.6561   -1.5380   -0.8555 H   0  0  0  0  0  0  0  0  0  0  0  0
    4.2852   -0.6416   -2.9522 H   0  0  0  0  0  0  0  0  0  0  0  0
    3.8791    1.4698   -3.1053 H   0  0  0  0  0  0  0  0  0  0  0  0
    2.2111    1.0101   -3.2027 H   0  0  0  0  0  0  0  0  0  0  0  0
    1.7891    2.3129   -1.4396 H   0  0  0  0  0  0  0  0  0  0  0  0
    3.4891    2.6892   -1.3017 H   0  0  0  0  0  0  0  0  0  0  0  0
  2  1  2  0  0  0  0
  3  2  1  0  0  0  0
  4  3  2  0  0  0  0
  5  4  1  0  0  0  0
  6  5  1  0  0  0  0
  7  5  2  0  0  0  0
  7  1  1  0  0  0  0
  8  4  1  0  0  0  0
  9  8  2  0  0  0  0
 10  9  1  0  0  0  0
 11 10  2  0  0  0  0
 11  3  1  0  0  0  0
 12 10  1  0  0  0  0
 13 12  1  0  0  0  0
 14  9  1  0  0  0  0
 15 14  1  0  0  0  0
 16  1  1  0  0  0  0
 17 16  1  0  0  0  0
 18 17  1  0  0  0  0
 19 18  1  0  0  0  0
 20 19  1  0  0  0  0
 21 20  1  0  0  0  0
 21 16  1  0  0  0  0
  6 22  1  0  0  0  0
  6 23  1  0  0  0  0
  8 24  1  0  0  0  0
 11 25  1  0  0  0  0
 13 26  1  0  0  0  0
 13 27  1  0  0  0  0
 13 28  1  0  0  0  0
 15 29  1  0  0  0  0
 15 30  1  0  0  0  0
 15 31  1  0  0  0  0
 17 32  1  0  0  0  0
 17 33  1  0  0  0  0
 18 34  1  0  0  0  0
 18 35  1  0  0  0  0
 19 36  1  0  0  0  0
 20 37  1  0  0  0  0
 20 38  1  0  0  0  0
 21 39  1  0  0  0  0
 21 40  1  0  0  0  0
M  END
>  <energy>
123.80756187594545

$$$$
