@<TRIPOS>MOLECULE
2LWK_0EC_A_101
 40 42 0 0 0
SMALL
GASTEIGER

@<TRIPOS>ATOM
      1 C           1.6332    0.9345    0.5485 C.ar    1  UNL1        0.2201
      2 N           1.0495   -0.2509    0.3575 N.ar    1  UNL1       -0.2141
      3 C          -0.2274   -0.3836    0.6952 C.ar    1  UNL1        0.0816
      4 C          -0.9446    0.6057    1.3761 C.ar    1  UNL1        0.0437
      5 C          -0.1889    1.7747    1.6244 C.ar    1  UNL1        0.1291
      6 N          -0.7814    2.8902    2.2595 N.pl3   1  UNL1       -0.3425
      7 N           1.1618    1.7537    1.5021 N.ar    1  UNL1       -0.1992
      8 C          -2.3285    0.3608    1.6280 C.ar    1  UNL1       -0.0038
      9 C          -2.9212   -0.8798    1.3125 C.ar    1  UNL1        0.1623
     10 C          -2.1374   -1.8550    0.6976 C.ar    1  UNL1        0.1635
     11 C          -0.8205   -1.5778    0.3612 C.ar    1  UNL1        0.0099
     12 O          -2.6688   -3.0580    0.3040 O.3     1  UNL1       -0.4914
     13 C          -1.8809   -4.1602    0.7736 C.3     1  UNL1        0.0790
     14 O          -4.2929   -0.8813    1.1509 O.3     1  UNL1       -0.4914
     15 C          -4.9547   -1.8985    1.9001 C.3     1  UNL1        0.0790
     16 N           2.8881    1.1701   -0.0325 N.pl3   1  UNL1       -0.2972
     17 C           3.8439    0.0650    0.0302 C.3     1  UNL1        0.0274
     18 C           3.5707   -0.9701   -1.0588 C.3     1  UNL1        0.0118
     19 N           3.4620   -0.4216   -2.3951 N.3     1  UNL1       -0.3130
     20 C           3.0817    0.9744   -2.5373 C.3     1  UNL1        0.0118
     21 C           2.7796    1.8535   -1.3160 C.3     1  UNL1        0.0274
     22 H          -0.0716    3.6031    2.4093 H       1  UNL1        0.1437
     23 H          -1.5135    3.2843    1.6710 H       1  UNL1        0.1437
     24 H          -2.9124    1.0947    2.1924 H       1  UNL1        0.0663
     25 H          -0.2385   -2.3166   -0.1884 H       1  UNL1        0.0677
     26 H          -1.2176   -3.9079    1.6126 H       1  UNL1        0.0660
     27 H          -2.5487   -4.9601    1.1012 H       1  UNL1        0.0660
     28 H          -1.2762   -4.5344   -0.0610 H       1  UNL1        0.0660
     29 H          -6.0289   -1.7960    1.7127 H       1  UNL1        0.0660
     30 H          -4.7785   -1.7937    2.9737 H       1  UNL1        0.0660
     31 H          -4.6780   -2.9007    1.5640 H       1  UNL1        0.0660
     32 H           4.8546    0.4731   -0.0971 H       1  UNL1        0.0477
     33 H           3.8262   -0.4190    1.0166 H       1  UNL1        0.0477
     34 H           4.3734   -1.7153   -1.0386 H       1  UNL1        0.0439
     35 H           2.6561   -1.5380   -0.8555 H       1  UNL1        0.0439
     36 H           4.2852   -0.6416   -2.9522 H       1  UNL1        0.1220
     37 H           3.8791    1.4698   -3.1053 H       1  UNL1        0.0439
     38 H           2.2111    1.0101   -3.2027 H       1  UNL1        0.0439
     39 H           1.7891    2.3129   -1.4396 H       1  UNL1        0.0477
     40 H           3.4891    2.6892   -1.3017 H       1  UNL1        0.0477
@<TRIPOS>BOND
     1     2     1   ar
     2     3     2   ar
     3     4     3   ar
     4     5     4   ar
     5     6     5    1
     6     7     5   ar
     7     7     1   ar
     8     8     4   ar
     9     9     8   ar
    10    10     9   ar
    11    11    10   ar
    12    11     3   ar
    13    12    10    1
    14    13    12    1
    15    14     9    1
    16    15    14    1
    17    16     1    1
    18    17    16    1
    19    18    17    1
    20    19    18    1
    21    20    19    1
    22    21    20    1
    23    21    16    1
    24     6    22    1
    25     6    23    1
    26     8    24    1
    27    11    25    1
    28    13    26    1
    29    13    27    1
    30    13    28    1
    31    15    29    1
    32    15    30    1
    33    15    31    1
    34    17    32    1
    35    17    33    1
    36    18    34    1
    37    18    35    1
    38    19    36    1
    39    20    37    1
    40    20    38    1
    41    21    39    1
    42    21    40    1
