REMARK  16 active torsions:
REMARK  status: ('A' for Active; 'I' for Inactive)
REMARK    1  A    between atoms: C_2  and  O_1 
REMARK    2  A    between atoms: C_3  and  C_2 
REMARK    3  A    between atoms: N_4  and  C_3 
REMARK    4  A    between atoms: C_5  and  N_4 
REMARK    5  A    between atoms: C_6  and  C_5 
REMARK    6  A    between atoms: N_7  and  C_6 
REMARK    7  A    between atoms: C_8  and  N_7 
REMARK    8  A    between atoms: N_26  and  C_11 
REMARK    9  A    between atoms: O_18  and  C_17 
REMARK   10  A    between atoms: O_22  and  C_21 
REMARK   11  A    between atoms: C_27  and  N_26 
REMARK   12  A    between atoms: C_28  and  C_27 
REMARK   13  A    between atoms: N_29  and  C_28 
REMARK   14  A    between atoms: C_30  and  N_29 
REMARK   15  A    between atoms: C_31  and  C_30 
REMARK   16  A    between atoms: O_32  and  C_31 
ROOT
ATOM      1  C   UNL d   1       0.303  -2.725   0.022  0.00  0.00     0.023 A 
ATOM      2  C   UNL d   1       1.601  -2.916  -0.466  0.00  0.00     0.026 A 
ATOM      3  C   UNL d   1       2.712  -2.334   0.164  0.00  0.00     0.026 A 
ATOM      4  C   UNL d   1       2.590  -1.543   1.322  0.00  0.00     0.023 A 
ATOM      5  C   UNL d   1       1.285  -1.317   1.803  0.00  0.00     0.052 A 
ATOM      6  C   UNL d   1       0.178  -1.946   1.187  0.00  0.00     0.052 A 
ATOM      7  C   UNL d   1      -1.129  -1.693   1.819  0.00  0.00     0.199 C 
ATOM      8  O   UNL d   1      -1.889  -2.596   2.134  0.00  0.00    -0.286 OA
ATOM      9  C   UNL d   1      -1.373  -0.301   2.210  0.00  0.00     0.065 A 
ATOM     10  C   UNL d   1      -2.600   0.327   2.000  0.00  0.00     0.081 A 
ATOM     11  C   UNL d   1      -2.802   1.619   2.478  0.00  0.00     0.040 A 
ATOM     12  C   UNL d   1      -1.776   2.271   3.166  0.00  0.00     0.040 A 
ATOM     13  C   UNL d   1      -0.543   1.636   3.364  0.00  0.00     0.081 A 
ATOM     14  C   UNL d   1      -0.329   0.349   2.870  0.00  0.00     0.065 A 
ATOM     15  C   UNL d   1       0.995  -0.333   2.900  0.00  0.00     0.199 C 
ATOM     16  O   UNL d   1       1.823  -0.057   3.756  0.00  0.00    -0.286 OA
ENDROOT
BRANCH   1  17
ATOM     17  N   UNL d   1      -0.791  -3.300  -0.670  0.00  0.00    -0.290 NA
ATOM     18  H   UNL d   1      -0.468  -3.810  -1.491  0.00  0.00     0.127 HD
BRANCH  17  19
ATOM     19  C   UNL d   1      -1.885  -2.371  -0.986  0.00  0.00     0.122 C 
BRANCH  19  20
ATOM     20  C   UNL d   1      -2.508  -2.591  -2.370  0.00  0.00     0.284 C 
BRANCH  20  21
ATOM     21  N   UNL d   1      -2.271  -1.508  -3.333  0.00  0.00     0.086 N 
ATOM     22  H   UNL d   1      -2.841  -1.689  -4.160  0.00  0.00     0.316 HD
BRANCH  21  23
ATOM     23  C   UNL d   1      -2.576  -0.171  -2.811  0.00  0.00     0.295 C 
BRANCH  23  24
ATOM     24  C   UNL d   1      -3.244   0.713  -3.854  0.00  0.00     0.194 C 
BRANCH  24  25
ATOM     25  O   UNL d   1      -3.327   2.039  -3.342  0.00  0.00    -0.399 OA
ATOM     26  H   UNL d   1      -4.107   2.080  -2.763  0.00  0.00     0.209 HD
ENDBRANCH  24  25
ENDBRANCH  23  24
ENDBRANCH  21  23
ENDBRANCH  20  21
ENDBRANCH  19  20
ENDBRANCH  17  19
ENDBRANCH   1  17
BRANCH   4  27
ATOM     27  N   UNL d   1       3.706  -0.854   1.841  0.00  0.00    -0.290 NA
ATOM     28  H   UNL d   1       3.471  -0.364   2.702  0.00  0.00     0.127 HD
BRANCH  27  29
ATOM     29  C   UNL d   1       4.971  -1.590   1.949  0.00  0.00     0.122 C 
BRANCH  29  30
ATOM     30  C   UNL d   1       5.617  -1.407   3.327  0.00  0.00     0.284 C 
BRANCH  30  31
ATOM     31  N   UNL d   1       5.067  -2.328   4.323  0.00  0.00     0.086 N 
ATOM     32  H   UNL d   1       4.065  -2.439   4.172  0.00  0.00     0.316 HD
BRANCH  31  33
ATOM     33  C   UNL d   1       5.714  -3.641   4.308  0.00  0.00     0.295 C 
BRANCH  33  34
ATOM     34  C   UNL d   1       6.825  -3.703   5.349  0.00  0.00     0.194 C 
BRANCH  34  35
ATOM     35  O   UNL d   1       7.047  -5.060   5.715  0.00  0.00    -0.399 OA
ATOM     36  H   UNL d   1       6.372  -5.294   6.374  0.00  0.00     0.209 HD
ENDBRANCH  34  35
ENDBRANCH  33  34
ENDBRANCH  31  33
ENDBRANCH  30  31
ENDBRANCH  29  30
ENDBRANCH  27  29
ENDBRANCH   4  27
BRANCH  10  37
ATOM     37  O   UNL d   1      -3.534  -0.258   1.190  0.00  0.00    -0.360 OA
ATOM     38  H   UNL d   1      -4.378   0.212   1.304  0.00  0.00     0.217 HD
ENDBRANCH  10  37
BRANCH  13  39
ATOM     39  O   UNL d   1       0.495   2.373   3.864  0.00  0.00    -0.360 OA
ATOM     40  H   UNL d   1       0.132   2.962   4.549  0.00  0.00     0.217 HD
ENDBRANCH  13  39
TORSDOF 16
