@<TRIPOS>MOLECULE
2KGP_MIX_A_26
 60 62 0 0 0
SMALL
GASTEIGER

@<TRIPOS>ATOM
      1 O          -3.3269    2.0391   -3.3422 O.3     1  UNL1       -0.3938
      2 C          -3.2442    0.7125   -3.8537 C.3     1  UNL1        0.0567
      3 C          -2.5756   -0.1713   -2.8105 C.3     1  UNL1        0.0192
      4 N          -2.2714   -1.5079   -3.3334 N.3     1  UNL1       -0.3123
      5 C          -2.5084   -2.5910   -2.3700 C.3     1  UNL1        0.0115
      6 C          -1.8855   -2.3711   -0.9858 C.3     1  UNL1        0.0217
      7 N          -0.7915   -3.3000   -0.6698 N.pl3   1  UNL1       -0.3421
      8 C           0.3028   -2.7246    0.0224 C.ar    1  UNL1        0.0389
      9 C           1.6012   -2.9155   -0.4663 C.ar    1  UNL1       -0.0384
     10 C           2.7125   -2.3345    0.1643 C.ar    1  UNL1       -0.0384
     11 C           2.5898   -1.5426    1.3224 C.ar    1  UNL1        0.0389
     12 C           1.2853   -1.3170    1.8033 C.ar    1  UNL1        0.0558
     13 C           0.1780   -1.9459    1.1868 C.ar    1  UNL1        0.0558
     14 C          -1.1290   -1.6927    1.8187 C.2     1  UNL1        0.1999
     15 O          -1.8885   -2.5961    2.1340 O.2     1  UNL1       -0.2864
     16 C          -1.3725   -0.3010    2.2103 C.ar    1  UNL1        0.0780
     17 C          -2.6003    0.3265    2.0002 C.ar    1  UNL1        0.1286
     18 O          -3.5339   -0.2575    1.1905 O.3     1  UNL1       -0.5060
     19 C          -2.8023    1.6191    2.4779 C.ar    1  UNL1       -0.0160
     20 C          -1.7761    2.2709    3.1657 C.ar    1  UNL1       -0.0160
     21 C          -0.5435    1.6362    3.3644 C.ar    1  UNL1        0.1286
     22 O           0.4949    2.3732    3.8640 O.3     1  UNL1       -0.5060
     23 C          -0.3292    0.3489    2.8705 C.ar    1  UNL1        0.0780
     24 C           0.9948   -0.3332    2.9003 C.2     1  UNL1        0.1999
     25 O           1.8225   -0.0571    3.7558 O.2     1  UNL1       -0.2864
     26 N           3.7060   -0.8535    1.8408 N.pl3   1  UNL1       -0.3421
     27 C           4.9710   -1.5898    1.9486 C.3     1  UNL1        0.0217
     28 C           5.6173   -1.4074    3.3271 C.3     1  UNL1        0.0115
     29 N           5.0667   -2.3278    4.3228 N.3     1  UNL1       -0.3123
     30 C           5.7140   -3.6411    4.3081 C.3     1  UNL1        0.0192
     31 C           6.8253   -3.7027    5.3489 C.3     1  UNL1        0.0567
     32 O           7.0474   -5.0600    5.7147 O.3     1  UNL1       -0.3938
     33 H          -4.1072    2.0796   -2.7629 H       1  UNL1        0.2095
     34 H          -4.2576    0.3628   -4.0765 H       1  UNL1        0.0570
     35 H          -2.6680    0.7484   -4.7828 H       1  UNL1        0.0570
     36 H          -3.2248   -0.2109   -1.9274 H       1  UNL1        0.0446
     37 H          -1.6288    0.2921   -2.5072 H       1  UNL1        0.0446
     38 H          -2.8414   -1.6889   -4.1602 H       1  UNL1        0.1221
     39 H          -2.1529   -3.5271   -2.8152 H       1  UNL1        0.0439
     40 H          -3.5936   -2.7160   -2.2536 H       1  UNL1        0.0439
     41 H          -2.6848   -2.5479   -0.2573 H       1  UNL1        0.0474
     42 H          -1.5590   -1.3356   -0.8572 H       1  UNL1        0.0474
     43 H          -0.4678   -3.8098   -1.4911 H       1  UNL1        0.1461
     44 H           1.7724   -3.5236   -1.3528 H       1  UNL1        0.0637
     45 H           3.6965   -2.5555   -0.2475 H       1  UNL1        0.0637
     46 H          -4.3780    0.2122    1.3045 H       1  UNL1        0.2922
     47 H          -3.7424    2.1352    2.3040 H       1  UNL1        0.0655
     48 H          -1.9599    3.2582    3.5831 H       1  UNL1        0.0655
     49 H           0.1324    2.9620    4.5494 H       1  UNL1        0.2922
     50 H           3.4713   -0.3636    2.7016 H       1  UNL1        0.1461
     51 H           4.8634   -2.6576    1.7260 H       1  UNL1        0.0474
     52 H           5.6506   -1.1778    1.1932 H       1  UNL1        0.0474
     53 H           5.4725   -0.3817    3.6866 H       1  UNL1        0.0439
     54 H           6.7035   -1.5369    3.2382 H       1  UNL1        0.0439
     55 H           4.0646   -2.4387    4.1718 H       1  UNL1        0.1221
     56 H           6.1207   -3.8909    3.3204 H       1  UNL1        0.0446
     57 H           4.9540   -4.3997    4.5299 H       1  UNL1        0.0446
     58 H           7.7623   -3.3121    4.9391 H       1  UNL1        0.0570
     59 H           6.5814   -3.1366    6.2542 H       1  UNL1        0.0570
     60 H           6.3721   -5.2944    6.3744 H       1  UNL1        0.2095
@<TRIPOS>BOND
     1     2     1    1
     2     3     2    1
     3     4     3    1
     4     5     4    1
     5     6     5    1
     6     7     6    1
     7     8     7    1
     8     9     8   ar
     9    10     9   ar
    10    11    10   ar
    11    12    11   ar
    12    13    12   ar
    13    13     8   ar
    14    14    13    1
    15    15    14    2
    16    16    14    1
    17    17    16   ar
    18    18    17    1
    19    19    17   ar
    20    20    19   ar
    21    21    20   ar
    22    22    21    1
    23    23    21   ar
    24    23    16   ar
    25    24    23    1
    26    24    12    1
    27    25    24    2
    28    26    11    1
    29    27    26    1
    30    28    27    1
    31    29    28    1
    32    30    29    1
    33    31    30    1
    34    32    31    1
    35     1    33    1
    36     2    34    1
    37     2    35    1
    38     3    36    1
    39     3    37    1
    40     4    38    1
    41     5    39    1
    42     5    40    1
    43     6    41    1
    44     6    42    1
    45     7    43    1
    46     9    44    1
    47    10    45    1
    48    18    46    1
    49    19    47    1
    50    20    48    1
    51    22    49    1
    52    26    50    1
    53    27    51    1
    54    27    52    1
    55    28    53    1
    56    28    54    1
    57    29    55    1
    58    30    56    1
    59    30    57    1
    60    31    58    1
    61    31    59    1
    62    32    60    1
