REMARK  11 active torsions:
REMARK  status: ('A' for Active; 'I' for Inactive)
REMARK    1  A    between atoms: C_22  and  C_2 
REMARK    2  A    between atoms: C_12  and  C_4 
REMARK    3  A    between atoms: O_7  and  C_5 
REMARK    4  A    between atoms: C_8  and  O_7 
REMARK    5  A    between atoms: C_9  and  C_8 
REMARK    6  A    between atoms: C_10  and  C_9 
REMARK    7  A    between atoms: N_11  and  C_10 
REMARK    8  A    between atoms: N_13  and  C_12 
REMARK    9  A    between atoms: C_14  and  N_13 
REMARK   10  A    between atoms: C_15  and  C_14 
REMARK   11  A    between atoms: N_16  and  C_15 
ROOT
ATOM      1  C   UNL d   1      -3.245   3.733  -2.166  0.00  0.00     0.015 A 
ATOM      2  C   UNL d   1      -2.139   3.159  -1.525  0.00  0.00    -0.025 A 
ATOM      3  C   UNL d   1      -2.190   2.969  -0.133  0.00  0.00     0.024 A 
ATOM      4  C   UNL d   1      -3.333   3.306   0.615  0.00  0.00     0.004 A 
ATOM      5  C   UNL d   1      -4.448   3.809  -0.069  0.00  0.00     0.076 A 
ATOM      6  C   UNL d   1      -4.387   4.067  -1.442  0.00  0.00     0.038 A 
ENDROOT
BRANCH   4   7
ATOM      7  C   UNL d   1      -3.270   3.196   2.122  0.00  0.00     0.311 C 
BRANCH   7   8
ATOM      8  N   UNL d   1      -3.459   1.815   2.567  0.00  0.00     0.089 N 
ATOM      9  H   UNL d   1      -2.825   1.197   2.060  0.00  0.00     0.316 HD
BRANCH   8  10
ATOM     10  C   UNL d   1      -3.219   1.667   4.003  0.00  0.00     0.300 C 
BRANCH  10  11
ATOM     11  C   UNL d   1      -3.999   0.451   4.520  0.00  0.00     0.302 C 
BRANCH  11  12
ATOM     12  N   UNL d   1      -3.300  -0.128   5.677  0.00  0.00     0.093 N 
ATOM     13  C   UNL d   1      -3.812   0.406   6.946  0.00  0.00     0.302 C 
ATOM     14  C   UNL d   1      -3.046  -0.195   8.130  0.00  0.00     0.299 C 
ATOM     15  N   UNL d   1      -3.131  -1.657   8.129  0.00  0.00     0.086 N 
ATOM     16  C   UNL d   1      -2.625  -2.188   6.862  0.00  0.00     0.299 C 
ATOM     17  H   UNL d   1      -4.105  -1.934   8.247  0.00  0.00     0.315 HD
ATOM     18  C   UNL d   1      -3.378  -1.594   5.669  0.00  0.00     0.302 C 
ENDBRANCH  11  12
ENDBRANCH  10  11
ENDBRANCH   8  10
ENDBRANCH   7   8
ENDBRANCH   4   7
BRANCH   5  19
ATOM     19  O   UNL d   1      -5.644   4.056   0.557  0.00  0.00    -0.350 OA
BRANCH  19  20
ATOM     20  C   UNL d   1      -6.389   2.858   0.836  0.00  0.00     0.177 C 
BRANCH  20  21
ATOM     21  C   UNL d   1      -6.997   2.198  -0.406  0.00  0.00     0.056 C 
BRANCH  21  22
ATOM     22  C   UNL d   1      -7.521   0.789  -0.116  0.00  0.00     0.269 C 
BRANCH  22  23
ATOM     23  N   UNL d   1      -8.665   0.817   0.787  0.00  0.00     0.078 N 
ATOM     24  H   UNL d   1      -9.183  -0.057   0.699  0.00  0.00     0.312 HD
ATOM     25  H   UNL d   1      -8.332   0.846   1.750  0.00  0.00     0.312 HD
ENDBRANCH  22  23
ENDBRANCH  21  22
ENDBRANCH  20  21
ENDBRANCH  19  20
ENDBRANCH   5  19
BRANCH   2  26
ATOM     26  C   UNL d   1      -1.015   2.632  -2.303  0.00  0.00    -0.025 C 
ATOM     27  C   UNL d   1      -1.145   1.401  -2.977  0.00  0.00     0.026 C 
ATOM     28  C   UNL d   1      -0.010   0.810  -3.571  0.00  0.00    -0.007 A 
ATOM     29  C   UNL d   1       0.198  -0.383  -4.321  0.00  0.00     0.030 A 
ATOM     30  C   UNL d   1       1.153   1.573  -3.688  0.00  0.00     0.042 A 
ATOM     31  C   UNL d   1       1.497  -0.369  -4.774  0.00  0.00     0.089 A 
ATOM     32  N   UNL d   1       2.068   0.810  -4.378  0.00  0.00    -0.365 N 
ATOM     33  H   UNL d   1       3.019   1.088  -4.577  0.00  0.00     0.165 HD
ATOM     34  C   UNL d   1       1.265   2.861  -3.156  0.00  0.00     0.031 C 
ATOM     35  C   UNL d   1       0.164   3.373  -2.458  0.00  0.00     0.014 C 
ENDBRANCH   2  26
TORSDOF 11
