@<TRIPOS>MOLECULE
1UTS_P13_B_1046
 63 66 0 0 0
SMALL
GASTEIGER

@<TRIPOS>ATOM
      1 C          -3.2447    3.7329   -2.1659 C.ar    1  UNL1       -0.0506
      2 C          -2.1395    3.1594   -1.5249 C.ar    1  UNL1       -0.0173
      3 C          -2.1900    2.9693   -0.1334 C.ar    1  UNL1       -0.0461
      4 C          -3.3328    3.3058    0.6146 C.ar    1  UNL1        0.0086
      5 C          -4.4484    3.8095   -0.0688 C.ar    1  UNL1        0.1249
      6 C          -4.3870    4.0673   -1.4420 C.ar    1  UNL1       -0.0191
      7 O          -5.6444    4.0561    0.5574 O.3     1  UNL1       -0.4916
      8 C          -6.3892    2.8585    0.8356 C.3     1  UNL1        0.0907
      9 C          -6.9968    2.1978   -0.4064 C.3     1  UNL1       -0.0063
     10 C          -7.5205    0.7887   -0.1156 C.3     1  UNL1       -0.0038
     11 N          -8.6647    0.8165    0.7868 N.3     1  UNL1       -0.3299
     12 C          -3.2696    3.1958    2.1216 C.3     1  UNL1        0.0248
     13 N          -3.4594    1.8148    2.5675 N.3     1  UNL1       -0.3107
     14 C          -3.2186    1.6665    4.0032 C.3     1  UNL1        0.0090
     15 C          -3.9986    0.4513    4.5204 C.3     1  UNL1        0.0115
     16 N          -3.2999   -0.1283    5.6766 N.3     1  UNL1       -0.2987
     17 C          -3.8125    0.4064    6.9461 C.3     1  UNL1        0.0115
     18 C          -3.0461   -0.1954    8.1299 C.3     1  UNL1        0.0087
     19 N          -3.1307   -1.6569    8.1292 N.3     1  UNL1       -0.3136
     20 C          -2.6251   -2.1879    6.8618 C.3     1  UNL1        0.0087
     21 C          -3.3784   -1.5944    5.6692 C.3     1  UNL1        0.0115
     22 C          -1.0153    2.6318   -2.3034 C.ar    1  UNL1       -0.0172
     23 C          -1.1450    1.4006   -2.9774 C.ar    1  UNL1       -0.0449
     24 C          -0.0100    0.8102   -3.5706 C.ar    1  UNL1        0.0002
     25 C           0.1982   -0.3829   -4.3207 C.ar    1  UNL1       -0.0366
     26 C           1.4967   -0.3691   -4.7741 C.ar    1  UNL1        0.0027
     27 N           2.0680    0.8103   -4.3782 N.ar    1  UNL1       -0.3606
     28 H           3.0192    1.0882   -4.5769 H       1  UNL1        0.1653
     29 C           1.1526    1.5731   -3.6875 C.ar    1  UNL1        0.0465
     30 C           1.2646    2.8614   -3.1556 C.ar    1  UNL1       -0.0372
     31 C           0.1640    3.3732   -2.4576 C.ar    1  UNL1       -0.0521
     32 H          -3.2039    3.9701   -3.2275 H       1  UNL1        0.0625
     33 H          -1.3307    2.5372    0.3779 H       1  UNL1        0.0628
     34 H          -5.2409    4.4966   -1.9596 H       1  UNL1        0.0654
     35 H          -5.7854    2.1452    1.4026 H       1  UNL1        0.0697
     36 H          -7.2016    3.1678    1.5036 H       1  UNL1        0.0697
     37 H          -7.7977    2.8277   -0.8110 H       1  UNL1        0.0310
     38 H          -6.2455    2.0983   -1.1961 H       1  UNL1        0.0310
     39 H          -6.7252    0.1664    0.3111 H       1  UNL1        0.0423
     40 H          -7.8219    0.3177   -1.0579 H       1  UNL1        0.0423
     41 H          -9.1831   -0.0569    0.6993 H       1  UNL1        0.1182
     42 H          -8.3325    0.8458    1.7503 H       1  UNL1        0.1182
     43 H          -4.0319    3.8407    2.5747 H       1  UNL1        0.0475
     44 H          -2.2975    3.5764    2.4615 H       1  UNL1        0.0475
     45 H          -2.8254    1.1973    2.0600 H       1  UNL1        0.1223
     46 H          -3.5402    2.5595    4.5534 H       1  UNL1        0.0437
     47 H          -2.1412    1.5444    4.1707 H       1  UNL1        0.0437
     48 H          -4.1014   -0.2941    3.7202 H       1  UNL1        0.0439
     49 H          -5.0212    0.7562    4.7813 H       1  UNL1        0.0439
     50 H          -4.8833    0.1895    7.0533 H       1  UNL1        0.0439
     51 H          -3.6926    1.4965    6.9706 H       1  UNL1        0.0439
     52 H          -3.4756    0.1815    9.0640 H       1  UNL1        0.0437
     53 H          -1.9960    0.1198    8.1110 H       1  UNL1        0.0437
     54 H          -4.1048   -1.9337    8.2473 H       1  UNL1        0.1220
     55 H          -2.7376   -3.2778    6.8616 H       1  UNL1        0.0437
     56 H          -1.5508   -1.9819    6.7797 H       1  UNL1        0.0437
     57 H          -4.4256   -1.9254    5.6872 H       1  UNL1        0.0439
     58 H          -2.9248   -1.9861    4.7507 H       1  UNL1        0.0439
     59 H          -2.0427    0.7989   -2.8388 H       1  UNL1        0.0630
     60 H          -0.5221   -1.1692   -4.5006 H       1  UNL1        0.0638
     61 H           2.0583   -1.0853   -5.3576 H       1  UNL1        0.0807
     62 H           2.1791    3.4370   -3.2537 H       1  UNL1        0.0638
     63 H           0.2526    4.3582   -2.0021 H       1  UNL1        0.0624
@<TRIPOS>BOND
     1     2     1   ar
     2     3     2   ar
     3     4     3   ar
     4     5     4   ar
     5     6     5   ar
     6     6     1   ar
     7     7     5    1
     8     8     7    1
     9     9     8    1
    10    10     9    1
    11    11    10    1
    12    12     4    1
    13    13    12    1
    14    14    13    1
    15    15    14    1
    16    16    15    1
    17    17    16    1
    18    18    17    1
    19    19    18    1
    20    20    19    1
    21    21    20    1
    22    21    16    1
    23    22     2    1
    24    23    22   ar
    25    24    23   ar
    26    25    24   ar
    27    26    25   ar
    28    27    26   ar
    29    27    28    1
    30    29    27   ar
    31    29    24   ar
    32    30    29   ar
    33    31    30   ar
    34    31    22   ar
    35     1    32    1
    36     3    33    1
    37     6    34    1
    38     8    35    1
    39     8    36    1
    40     9    37    1
    41     9    38    1
    42    10    39    1
    43    10    40    1
    44    11    41    1
    45    11    42    1
    46    12    43    1
    47    12    44    1
    48    13    45    1
    49    14    46    1
    50    14    47    1
    51    15    48    1
    52    15    49    1
    53    17    50    1
    54    17    51    1
    55    18    52    1
    56    18    53    1
    57    19    54    1
    58    20    55    1
    59    20    56    1
    60    21    57    1
    61    21    58    1
    62    23    59    1
    63    25    60    1
    64    26    61    1
    65    30    62    1
    66    31    63    1
