ligand.pdb
  1228              3D

 51 53  0  0  0  0  0  0  0  0999 V2000
   -5.9162    1.7784    1.7078 N   0  0  0  0  0  0  0  0  0  0  0  0
   -4.9168    0.7843    2.1008 C   0  0  0  0  0  0  0  0  0  0  0  0
   -4.9284    0.6810    3.1923 H   0  0  0  0  0  0  0  0  0  0  0  0
   -3.5686    1.2993    1.6442 C   0  0  0  0  0  0  0  0  0  0  0  0
   -3.2861    1.6403    0.5048 O   0  0  0  0  0  0  0  0  0  0  0  0
   -2.6854    1.3169    2.6755 O   0  0  0  0  0  0  0  0  0  0  0  0
   -5.2544   -0.5570    1.4452 C   0  0  0  0  0  0  0  0  0  0  0  0
   -4.2129   -1.6403    1.6997 C   0  0  0  0  0  0  0  0  0  0  0  0
   -3.3463   -1.9924    0.1606 S   0  0  0  0  0  0  0  0  0  0  0  0
   -3.2884   -0.8773   -0.5907 H   0  0  0  0  0  0  0  0  0  0  0  0
   -4.2248   -3.2730   -0.7432 C   0  0  0  0  0  0  0  0  0  0  0  0
   -1.6780   -2.5440    0.5349 C   0  0  0  0  0  0  0  0  0  0  0  0
   -0.7674   -2.3460   -0.6708 C   0  0  0  0  0  0  0  0  0  0  0  0
   -1.3358   -1.9148   -1.5046 H   0  0  0  0  0  0  0  0  0  0  0  0
    0.2518   -1.4094   -0.2922 O   0  0  0  0  0  0  0  0  0  0  0  0
    1.4713   -1.7324   -0.9682 C   0  0  0  0  0  0  0  0  0  0  0  0
    1.6183   -1.0134   -1.7847 H   0  0  0  0  0  0  0  0  0  0  0  0
    1.3509   -3.1707   -1.4611 C   0  0  0  0  0  0  0  0  0  0  0  0
    2.0815   -3.8422   -0.9954 H   0  0  0  0  0  0  0  0  0  0  0  0
   -0.0405   -3.6187   -1.0727 C   0  0  0  0  0  0  0  0  0  0  0  0
    0.0305   -4.3150   -0.2305 H   0  0  0  0  0  0  0  0  0  0  0  0
   -0.7292   -4.2769   -2.1211 O   0  0  0  0  0  0  0  0  0  0  0  0
    1.5586   -3.2040   -2.8654 O   0  0  0  0  0  0  0  0  0  0  0  0
    2.5927   -1.5489   -0.0369 N   0  0  0  0  0  0  0  0  0  0  0  0
    3.9124   -1.7201   -0.4491 C   0  0  0  0  0  0  0  0  0  0  0  0
    4.3349   -2.6433   -1.3354 N   0  0  0  0  0  0  0  0  0  0  0  0
    5.6524   -2.8676   -1.2136 C   0  0  0  0  0  0  0  0  0  0  0  0
    6.5163   -2.3089   -0.3397 N   0  0  0  0  0  0  0  0  0  0  0  0
    6.0469   -1.3440    0.5085 C   0  0  0  0  0  0  0  0  0  0  0  0
    4.6445   -1.2629    0.6492 C   0  0  0  0  0  0  0  0  0  0  0  0
    3.9000   -0.2564    1.2366 N   0  0  0  0  0  0  0  0  0  0  0  0
    2.6568   -0.5416    0.9081 C   0  0  0  0  0  0  0  0  0  0  0  0
    6.8962   -0.8380    1.5141 N   0  0  0  0  0  0  0  0  0  0  0  0
   -5.5218    2.7174    1.7467 H   0  0  0  0  0  0  0  0  0  0  0  0
   -6.6838    1.7711    2.3787 H   0  0  0  0  0  0  0  0  0  0  0  0
   -1.7703    1.1292    2.3758 H   0  0  0  0  0  0  0  0  0  0  0  0
   -6.2212   -0.9105    1.8265 H   0  0  0  0  0  0  0  0  0  0  0  0
   -5.3717   -0.4381    0.3613 H   0  0  0  0  0  0  0  0  0  0  0  0
   -3.4890   -1.3524    2.4677 H   0  0  0  0  0  0  0  0  0  0  0  0
   -4.6969   -2.5595    2.0463 H   0  0  0  0  0  0  0  0  0  0  0  0
   -4.2984   -2.9950   -1.7970 H   0  0  0  0  0  0  0  0  0  0  0  0
   -5.2322   -3.3942   -0.3372 H   0  0  0  0  0  0  0  0  0  0  0  0
   -3.6950   -4.2247   -0.6604 H   0  0  0  0  0  0  0  0  0  0  0  0
   -1.7318   -3.5928    0.8453 H   0  0  0  0  0  0  0  0  0  0  0  0
   -1.3140   -1.9746    1.3978 H   0  0  0  0  0  0  0  0  0  0  0  0
   -0.1570   -5.0013   -2.4296 H   0  0  0  0  0  0  0  0  0  0  0  0
    1.9835   -4.0552   -3.0693 H   0  0  0  0  0  0  0  0  0  0  0  0
    6.0652   -3.6211   -1.8742 H   0  0  0  0  0  0  0  0  0  0  0  0
    1.7705   -0.1066    1.3545 H   0  0  0  0  0  0  0  0  0  0  0  0
    7.1977   -1.5902    2.1303 H   0  0  0  0  0  0  0  0  0  0  0  0
    7.7159   -0.4116    1.0856 H   0  0  0  0  0  0  0  0  0  0  0  0
  2  1  1  0  0  0  0
  2  3  1  0  0  0  0
  4  2  1  0  0  0  0
  5  4  2  0  0  0  0
  6  4  1  0  0  0  0
  7  2  1  0  0  0  0
  8  7  1  0  0  0  0
  9  8  1  0  0  0  0
  9 10  1  0  0  0  0
 11  9  1  0  0  0  0
 12  9  1  0  0  0  0
 13 12  1  0  0  0  0
 13 14  1  0  0  0  0
 15 13  1  0  0  0  0
 16 15  1  0  0  0  0
 16 17  1  0  0  0  0
 18 16  1  0  0  0  0
 18 19  1  0  0  0  0
 20 18  1  0  0  0  0
 20 21  1  0  0  0  0
 20 13  1  0  0  0  0
 22 20  1  0  0  0  0
 23 18  1  0  0  0  0
 24 16  1  0  0  0  0
 25 24  1  0  0  0  0
 26 25  2  0  0  0  0
 27 26  1  0  0  0  0
 28 27  2  0  0  0  0
 29 28  1  0  0  0  0
 30 29  2  0  0  0  0
 30 25  1  0  0  0  0
 31 30  1  0  0  0  0
 32 31  2  0  0  0  0
 32 24  1  0  0  0  0
 33 29  1  0  0  0  0
  1 34  1  0  0  0  0
  1 35  1  0  0  0  0
  6 36  1  0  0  0  0
  7 37  1  0  0  0  0
  7 38  1  0  0  0  0
  8 39  1  0  0  0  0
  8 40  1  0  0  0  0
 11 41  1  0  0  0  0
 11 42  1  0  0  0  0
 11 43  1  0  0  0  0
 12 44  1  0  0  0  0
 12 45  1  0  0  0  0
 22 46  1  0  0  0  0
 23 47  1  0  0  0  0
 27 48  1  0  0  0  0
 32 49  1  0  0  0  0
 33 50  1  0  0  0  0
 33 51  1  0  0  0  0
M  END
>  <energy>
94.982945109732356

$$$$
