@<TRIPOS>MOLECULE
ligand.pdb
 51 53 0 0 0
SMALL
GASTEIGER

@<TRIPOS>ATOM
      1 N          -5.9162    1.7784    1.7078 N.3     1  UNL1       -0.3184
      2 CA         -4.9168    0.7843    2.1008 C.3     1  UNL1        0.1039
      3 HA         -4.9284    0.6810    3.1923 H       1  UNL1        0.0574
      4 C          -3.5686    1.2993    1.6442 C.2     1  UNL1        0.3217
      5 O          -3.2861    1.6403    0.5048 O.2     1  UNL1       -0.2493
      6 OXT        -2.6854    1.3169    2.6755 O.3     1  UNL1       -0.4795
      7 C          -5.2544   -0.5570    1.4452 C.3     1  UNL1       -0.0199
      8 C          -4.2129   -1.6403    1.6997 C.3     1  UNL1       -0.0230
      9 S          -3.3463   -1.9924    0.1606 S.3     1  UNL1       -0.2533
     10 H          -3.2884   -0.8773   -0.5907 H       1  UNL1        0.0821
     11 C          -4.2248   -3.2730   -0.7432 C.3     1  UNL1       -0.0366
     12 C          -1.6780   -2.5440    0.5349 C.3     1  UNL1        0.0041
     13 C          -0.7674   -2.3460   -0.6708 C.3     1  UNL1        0.0970
     14 H          -1.3358   -1.9148   -1.5046 H       1  UNL1        0.0631
     15 O           0.2518   -1.4094   -0.2922 O.3     1  UNL1       -0.3472
     16 C           1.4713   -1.7324   -0.9682 C.3     1  UNL1        0.1666
     17 H           1.6183   -1.0134   -1.7847 H       1  UNL1        0.0866
     18 C           1.3509   -3.1707   -1.4611 C.3     1  UNL1        0.1285
     19 H           2.0815   -3.8422   -0.9954 H       1  UNL1        0.0665
     20 C          -0.0405   -3.6187   -1.0727 C.3     1  UNL1        0.1121
     21 H           0.0305   -4.3150   -0.2305 H       1  UNL1        0.0647
     22 O          -0.7292   -4.2769   -2.1211 O.3     1  UNL1       -0.3865
     23 O           1.5586   -3.2040   -2.8654 O.3     1  UNL1       -0.3847
     24 N           2.5927   -1.5489   -0.0369 N.ar    1  UNL1       -0.2855
     25 C           3.9124   -1.7201   -0.4491 C.ar    1  UNL1        0.1674
     26 N           4.3349   -2.6433   -1.3354 N.ar    1  UNL1       -0.2159
     27 C           5.6524   -2.8676   -1.2136 C.ar    1  UNL1        0.1205
     28 N           6.5163   -2.3089   -0.3397 N.ar    1  UNL1       -0.2188
     29 C           6.0469   -1.3440    0.5085 C.ar    1  UNL1        0.1472
     30 C           4.6445   -1.2629    0.6492 C.ar    1  UNL1        0.1473
     31 N           3.9000   -0.2564    1.2366 N.ar    1  UNL1       -0.2306
     32 C           2.6568   -0.5416    0.9081 C.ar    1  UNL1        0.1004
     33 N           6.8962   -0.8380    1.5141 N.pl3   1  UNL1       -0.3413
     34 H1         -5.5218    2.7174    1.7467 H       1  UNL1        0.1190
     35 H2         -6.6838    1.7711    2.3787 H       1  UNL1        0.1190
     36 HXT        -1.7703    1.1292    2.3758 H       1  UNL1        0.2951
     37 H          -6.2212   -0.9105    1.8265 H       1  UNL1        0.0293
     38 H          -5.3717   -0.4381    0.3613 H       1  UNL1        0.0293
     39 H          -3.4890   -1.3524    2.4677 H       1  UNL1        0.0360
     40 H          -4.6969   -2.5595    2.0463 H       1  UNL1        0.0360
     41 H          -4.2984   -2.9950   -1.7970 H       1  UNL1        0.0324
     42 H          -5.2322   -3.3942   -0.3372 H       1  UNL1        0.0324
     43 H          -3.6950   -4.2247   -0.6604 H       1  UNL1        0.0324
     44 H          -1.7318   -3.5928    0.8453 H       1  UNL1        0.0385
     45 H          -1.3140   -1.9746    1.3978 H       1  UNL1        0.0385
     46 H          -0.1570   -5.0013   -2.4296 H       1  UNL1        0.2100
     47 H           1.9835   -4.0552   -3.0693 H       1  UNL1        0.2101
     48 H           6.0652   -3.6211   -1.8742 H       1  UNL1        0.1048
     49 H           1.7705   -0.1066    1.3545 H       1  UNL1        0.1030
     50 H           7.1977   -1.5902    2.1303 H       1  UNL1        0.1438
     51 H           7.7159   -0.4116    1.0856 H       1  UNL1        0.1438
@<TRIPOS>BOND
     1     2     1    1
     2     2     3    1
     3     4     2    1
     4     5     4    2
     5     6     4    1
     6     7     2    1
     7     8     7    1
     8     9     8    1
     9     9    10    1
    10    11     9    1
    11    12     9    1
    12    13    12    1
    13    13    14    1
    14    15    13    1
    15    16    15    1
    16    16    17    1
    17    18    16    1
    18    18    19    1
    19    20    18    1
    20    20    21    1
    21    20    13    1
    22    22    20    1
    23    23    18    1
    24    24    16    1
    25    25    24   ar
    26    26    25   ar
    27    27    26   ar
    28    28    27   ar
    29    29    28   ar
    30    30    29   ar
    31    30    25   ar
    32    31    30   ar
    33    32    31   ar
    34    32    24   ar
    35    33    29    1
    36     1    34    1
    37     1    35    1
    38     6    36    1
    39     7    37    1
    40     7    38    1
    41     8    39    1
    42     8    40    1
    43    11    41    1
    44    11    42    1
    45    11    43    1
    46    12    44    1
    47    12    45    1
    48    22    46    1
    49    23    47    1
    50    27    48    1
    51    32    49    1
    52    33    50    1
    53    33    51    1
