REMARK  12 active torsions:
REMARK  status: ('A' for Active; 'I' for Inactive)
REMARK    1  A    between atoms: CA_2  and  N_1 
REMARK    2  A    between atoms: C_3  and  CA_2 
REMARK    3  A    between atoms: C_6  and  CA_2 
REMARK    4  A    between atoms: OXT_5  and  C_3 
REMARK    5  A    between atoms: C_7  and  C_6 
REMARK    6  A    between atoms: S_8  and  C_7 
REMARK    7  A    between atoms: C_11  and  S_8 
REMARK    8  A    between atoms: C_12  and  C_11 
REMARK    9  A    between atoms: N_19  and  C_14 
REMARK   10  A    between atoms: O_18  and  C_15 
REMARK   11  A    between atoms: O_17  and  C_16 
REMARK   12  A    between atoms: N_28  and  C_24 
ROOT
ATOM      1  C   UNL d   1      -0.767  -2.346  -0.671  0.00  0.00     0.163 C 
ATOM      2  O   UNL d   1       0.252  -1.409  -0.292  0.00  0.00    -0.355 OA
ATOM      3  C   UNL d   1       1.471  -1.732  -0.968  0.00  0.00     0.262 C 
ATOM      4  C   UNL d   1       1.351  -3.171  -1.461  0.00  0.00     0.198 C 
ATOM      5  C   UNL d   1      -0.041  -3.619  -1.073  0.00  0.00     0.180 C 
ENDROOT
BRANCH   1   6
ATOM      6  C   UNL d   1      -1.678  -2.544   0.535  0.00  0.00     0.086 C 
BRANCH   6   7
ATOM      7  S   UNL d   1      -3.346  -1.992   0.161  0.00  0.00    -0.264 SA
ATOM      8  H   UNL d   1      -3.288  -0.877  -0.591  0.00  0.00     0.081 HD
ATOM      9  C   UNL d   1      -4.225  -3.273  -0.743  0.00  0.00     0.066 C 
BRANCH   7  10
ATOM     10  C   UNL d   1      -4.213  -1.640   1.700  0.00  0.00     0.054 C 
BRANCH  10  11
ATOM     11  C   UNL d   1      -5.254  -0.557   1.445  0.00  0.00     0.055 C 
BRANCH  11  12
ATOM     12  CA  UNL d   1      -4.917   0.784   2.101  0.00  0.00     0.315 C 
BRANCH  12  13
ATOM     13  N   UNL d   1      -5.916   1.778   1.708  0.00  0.00     0.093 N 
ATOM     14  H1  UNL d   1      -5.522   2.717   1.747  0.00  0.00     0.314 HD
ATOM     15  H2  UNL d   1      -6.684   1.771   2.379  0.00  0.00     0.314 HD
ENDBRANCH  12  13
BRANCH  12  16
ATOM     16  C   UNL d   1      -3.569   1.299   1.644  0.00  0.00     0.173 C 
ATOM     17  O   UNL d   1      -3.286   1.640   0.505  0.00  0.00    -0.648 OA
BRANCH  16  18
ATOM     18  OXT UNL d   1      -2.685   1.317   2.675  0.00  0.00    -0.775 OA
ATOM     19  HXT UNL d   1      -1.770   1.129   2.376  0.00  0.00     0.167 HD
ENDBRANCH  16  18
ENDBRANCH  12  16
ENDBRANCH  11  12
ENDBRANCH  10  11
ENDBRANCH   7  10
ENDBRANCH   6   7
ENDBRANCH   1   6
BRANCH   5  20
ATOM     20  O   UNL d   1      -0.729  -4.277  -2.121  0.00  0.00    -0.390 OA
ATOM     21  H   UNL d   1      -0.157  -5.001  -2.430  0.00  0.00     0.210 HD
ENDBRANCH   5  20
BRANCH   3  22
ATOM     22  N   UNL d   1       2.593  -1.549  -0.037  0.00  0.00    -0.294 N 
ATOM     23  C   UNL d   1       3.912  -1.720  -0.449  0.00  0.00     0.166 C 
ATOM     24  N   UNL d   1       4.335  -2.643  -1.335  0.00  0.00    -0.222 NA
ATOM     25  C   UNL d   1       4.644  -1.263   0.649  0.00  0.00     0.144 C 
ATOM     26  C   UNL d   1       5.652  -2.868  -1.214  0.00  0.00     0.237 C 
ATOM     27  N   UNL d   1       6.516  -2.309  -0.340  0.00  0.00    -0.228 NA
ATOM     28  C   UNL d   1       6.047  -1.344   0.508  0.00  0.00     0.135 C 
ATOM     29  N   UNL d   1       3.900  -0.256   1.237  0.00  0.00    -0.236 NA
ATOM     30  C   UNL d   1       2.657  -0.542   0.908  0.00  0.00     0.214 C 
BRANCH  28  31
ATOM     31  N   UNL d   1       6.896  -0.838   1.514  0.00  0.00    -0.285 NA
ATOM     32  H   UNL d   1       7.198  -1.590   2.130  0.00  0.00     0.125 HD
ATOM     33  H   UNL d   1       7.716  -0.412   1.086  0.00  0.00     0.125 HD
ENDBRANCH  28  31
ENDBRANCH   3  22
BRANCH   4  34
ATOM     34  O   UNL d   1       1.559  -3.204  -2.865  0.00  0.00    -0.388 OA
ATOM     35  H   UNL d   1       1.984  -4.055  -3.069  0.00  0.00     0.210 HD
ENDBRANCH   4  34
TORSDOF 12
