REMARK  16 active torsions:
REMARK  status: ('A' for Active; 'I' for Inactive)
REMARK    1  A    between atoms: O_12  and  C_1 
REMARK    2  A    between atoms: O_11  and  C_2 
REMARK    3  A    between atoms: N_10  and  C_3 
REMARK    4  A    between atoms: O_9  and  C_4 
REMARK    5  A    between atoms: C_6  and  C_5 
REMARK    6  A    between atoms: O_7  and  C_6 
REMARK    7  A    between atoms: C_13  and  O_12 
REMARK    8  A    between atoms: N_32  and  C_14 
REMARK    9  A    between atoms: N_31  and  C_16 
REMARK   10  A    between atoms: O_20  and  C_17 
REMARK   11  A    between atoms: O_19  and  C_18 
REMARK   12  A    between atoms: C_21  and  O_20 
REMARK   13  A    between atoms: N_30  and  C_22 
REMARK   14  A    between atoms: O_29  and  C_24 
REMARK   15  A    between atoms: C_26  and  C_25 
REMARK   16  A    between atoms: N_27  and  C_26 
ROOT
ATOM      1  C   UNL d   1      -0.769   4.697   0.289  0.00  0.00     0.189 C 
ATOM      2  C   UNL d   1      -0.396   3.922   1.566  0.00  0.00     0.251 C 
ATOM      3  C   UNL d   1      -0.718   4.779   2.796  0.00  0.00     0.076 C 
ATOM      4  C   UNL d   1       0.016   6.126   2.751  0.00  0.00     0.251 C 
ATOM      5  C   UNL d   1      -0.355   6.912   1.471  0.00  0.00     0.189 C 
ATOM      6  C   UNL d   1      -0.040   6.048   0.240  0.00  0.00     0.180 C 
ENDROOT
BRANCH   1   7
ATOM      7  O   UNL d   1      -0.596   3.908  -0.902  0.00  0.00    -0.348 OA
BRANCH   7   8
ATOM      8  C   UNL d   1       0.729   3.625  -1.349  0.00  0.00     0.291 C 
ATOM      9  C   UNL d   1       0.632   3.281  -2.846  0.00  0.00     0.208 C 
ATOM     10  C   UNL d   1       2.012   2.945  -3.434  0.00  0.00     0.282 C 
ATOM     11  C   UNL d   1       3.091   2.889  -2.348  0.00  0.00     0.184 C 
ATOM     12  C   UNL d   1       2.595   2.109  -1.121  0.00  0.00     0.179 C 
ATOM     13  O   UNL d   1       1.314   2.539  -0.636  0.00  0.00    -0.349 OA
BRANCH   9  14
ATOM     14  O   UNL d   1      -0.205   2.126  -2.982  0.00  0.00    -0.388 OA
ATOM     15  H   UNL d   1      -0.564   2.150  -3.885  0.00  0.00     0.210 HD
ENDBRANCH   9  14
BRANCH  10  16
ATOM     16  N   UNL d   1       2.401   3.943  -4.433  0.00  0.00     0.088 N 
ATOM     17  H   UNL d   1       2.467   4.862  -3.992  0.00  0.00     0.313 HD
ATOM     18  H   UNL d   1       1.667   4.014  -5.136  0.00  0.00     0.313 HD
ENDBRANCH  10  16
BRANCH  11  19
ATOM     19  O   UNL d   1       4.234   2.226  -2.879  0.00  0.00    -0.391 OA
ATOM     20  H   UNL d   1       4.971   2.860  -2.860  0.00  0.00     0.210 HD
ENDBRANCH  11  19
BRANCH  12  21
ATOM     21  C   UNL d   1       3.582   2.161   0.051  0.00  0.00     0.198 C 
BRANCH  21  22
ATOM     22  O   UNL d   1       3.822   3.500   0.464  0.00  0.00    -0.398 OA
ATOM     23  H   UNL d   1       2.958   3.914   0.640  0.00  0.00     0.209 HD
ENDBRANCH  21  22
ENDBRANCH  12  21
ENDBRANCH   7   8
ENDBRANCH   1   7
BRANCH   2  24
ATOM     24  N   UNL d   1      -1.130   2.661   1.672  0.00  0.00     0.085 N 
ATOM     25  H   UNL d   1      -0.469   1.885   1.703  0.00  0.00     0.313 HD
ATOM     26  H   UNL d   1      -1.696   2.511   0.838  0.00  0.00     0.313 HD
ENDBRANCH   2  24
BRANCH   6  27
ATOM     27  O   UNL d   1      -0.436   6.757  -0.939  0.00  0.00    -0.390 OA
ATOM     28  H   UNL d   1       0.368   6.925  -1.457  0.00  0.00     0.210 HD
ENDBRANCH   6  27
BRANCH   5  29
ATOM     29  O   UNL d   1       0.464   8.081   1.353  0.00  0.00    -0.349 OA
BRANCH  29  30
ATOM     30  C   UNL d   1      -0.085   9.332   1.801  0.00  0.00     0.293 C 
ATOM     31  C   UNL d   1       1.065  10.127   2.470  0.00  0.00     0.275 C 
ATOM     32  C   UNL d   1       0.587  11.244   3.394  0.00  0.00     0.074 C 
ATOM     33  C   UNL d   1      -0.857  11.602   3.096  0.00  0.00     0.151 C 
ATOM     34  C   UNL d   1      -1.694  10.338   3.346  0.00  0.00     0.181 C 
ATOM     35  O   UNL d   1      -1.256   9.200   2.595  0.00  0.00    -0.349 OA
BRANCH  31  36
ATOM     36  N   UNL d   1       1.992   9.256   3.205  0.00  0.00     0.087 N 
ATOM     37  H   UNL d   1       2.899   9.715   3.270  0.00  0.00     0.313 HD
ATOM     38  H   UNL d   1       2.146   8.399   2.673  0.00  0.00     0.313 HD
ENDBRANCH  31  36
BRANCH  33  39
ATOM     39  O   UNL d   1      -1.249  12.643   3.991  0.00  0.00    -0.393 OA
ATOM     40  H   UNL d   1      -2.004  13.100   3.571  0.00  0.00     0.210 HD
ENDBRANCH  33  39
BRANCH  34  41
ATOM     41  C   UNL d   1      -3.198  10.582   3.119  0.00  0.00     0.301 C 
BRANCH  41  42
ATOM     42  N   UNL d   1      -3.957   9.335   3.069  0.00  0.00     0.080 N 
ATOM     43  H   UNL d   1      -3.656   8.714   3.823  0.00  0.00     0.312 HD
ATOM     44  H   UNL d   1      -3.738   8.850   2.197  0.00  0.00     0.312 HD
ENDBRANCH  41  42
ENDBRANCH  34  41
ENDBRANCH  29  30
ENDBRANCH   5  29
BRANCH   4  45
ATOM     45  N   UNL d   1      -0.313   6.864   3.966  0.00  0.00     0.085 N 
ATOM     46  H   UNL d   1      -0.082   6.303   4.786  0.00  0.00     0.313 HD
ATOM     47  H   UNL d   1       0.281   7.689   4.025  0.00  0.00     0.313 HD
ENDBRANCH   4  45
TORSDOF 16
