@<TRIPOS>MOLECULE
ligands/ligand.pdb
 69 71 0 0 0
SMALL
GASTEIGER

@<TRIPOS>ATOM
      1 C           0.7291    3.6254   -1.3489 C.3     1  UNL1        0.1874
      2 H           1.3552    4.5149   -1.2307 H       1  UNL1        0.0937
      3 C           0.6324    3.2814   -2.8465 C.3     1  UNL1        0.1234
      4 H           0.1334    4.1026   -3.3761 H       1  UNL1        0.0660
      5 C           2.0120    2.9448   -3.4341 C.3     1  UNL1        0.0647
      6 H           1.9731    1.9746   -3.9503 H       1  UNL1        0.0512
      7 C           3.0907    2.8893   -2.3478 C.3     1  UNL1        0.1012
      8 H           3.4033    3.8991   -2.0529 H       1  UNL1        0.0636
      9 C           2.5946    2.1089   -1.1205 C.3     1  UNL1        0.1120
     10 H           2.4765    1.0559   -1.3936 H       1  UNL1        0.0646
     11 C           3.5817    2.1609    0.0506 C.3     1  UNL1        0.0730
     12 O           3.8225    3.5002    0.4641 O.3     1  UNL1       -0.3924
     13 O           1.3144    2.5391   -0.6357 O.3     1  UNL1       -0.3406
     14 O           4.2343    2.2263   -2.8786 O.3     1  UNL1       -0.3875
     15 N           2.4011    3.9433   -4.4326 N.3     1  UNL1       -0.3229
     16 O          -0.2048    2.1260   -2.9819 O.3     1  UNL1       -0.3851
     17 O          -0.5958    3.9075   -0.9021 O.3     1  UNL1       -0.3413
     18 C          -0.7688    4.6966    0.2895 C.3     1  UNL1        0.1051
     19 H          -1.8459    4.9074    0.3169 H       1  UNL1        0.0639
     20 C          -0.3957    3.9217    1.5664 C.3     1  UNL1        0.0355
     21 H           0.6752    3.6996    1.5650 H       1  UNL1        0.0485
     22 C          -0.7182    4.7794    2.7958 C.3     1  UNL1       -0.0175
     23 C           0.0159    6.1256    2.7509 C.3     1  UNL1        0.0355
     24 H           1.0991    5.9423    2.7474 H       1  UNL1        0.0485
     25 C          -0.3555    6.9123    1.4714 C.3     1  UNL1        0.1051
     26 H          -1.4243    7.1666    1.4529 H       1  UNL1        0.0639
     27 C          -0.0399    6.0475    0.2396 C.3     1  UNL1        0.1104
     28 H           1.0476    5.9110    0.1965 H       1  UNL1        0.0646
     29 O          -0.4364    6.7572   -0.9390 O.3     1  UNL1       -0.3865
     30 O           0.4641    8.0809    1.3528 O.3     1  UNL1       -0.3423
     31 C          -0.0853    9.3323    1.8008 C.3     1  UNL1        0.1752
     32 H          -0.3836    9.8576    0.8856 H       1  UNL1        0.0926
     33 C           1.0654   10.1272    2.4697 C.3     1  UNL1        0.0590
     34 H           1.6530   10.5751    1.6552 H       1  UNL1        0.0509
     35 C           0.5872   11.2442    3.3939 C.3     1  UNL1       -0.0044
     36 C          -0.8568   11.6019    3.0960 C.3     1  UNL1        0.0842
     37 H          -0.9743   11.9592    2.0621 H       1  UNL1        0.0620
     38 C          -1.6945   10.3377    3.3457 C.3     1  UNL1        0.0998
     39 H          -1.5812   10.0595    4.4068 H       1  UNL1        0.0635
     40 C          -3.1978   10.5823    3.1193 C.3     1  UNL1        0.0221
     41 N          -3.9567    9.3349    3.0692 N.3     1  UNL1       -0.3276
     42 O          -1.2561    9.2002    2.5951 O.3     1  UNL1       -0.3427
     43 O          -1.2493   12.6431    3.9911 O.3     1  UNL1       -0.3891
     44 N           1.9920    9.2562    3.2049 N.3     1  UNL1       -0.3231
     45 N          -0.3132    6.8636    3.9664 N.3     1  UNL1       -0.3250
     46 N          -1.1301    2.6607    1.6722 N.3     1  UNL1       -0.3250
     47 H           3.1684    1.6070    0.9075 H       1  UNL1        0.0584
     48 H           4.5414    1.7014   -0.2192 H       1  UNL1        0.0584
     49 H           2.9577    3.9143    0.6398 H       1  UNL1        0.2095
     50 H           4.9710    2.8600   -2.8601 H       1  UNL1        0.2100
     51 H           2.4672    4.8621   -3.9924 H       1  UNL1        0.1186
     52 H           1.6672    4.0145   -5.1365 H       1  UNL1        0.1186
     53 H          -0.5641    2.1503   -3.8848 H       1  UNL1        0.2101
     54 H          -0.4422    4.2316    3.7052 H       1  UNL1        0.0297
     55 H          -1.7979    4.9559    2.8586 H       1  UNL1        0.0297
     56 H           0.3683    6.9251   -1.4571 H       1  UNL1        0.2100
     57 H           1.2359   12.1207    3.3013 H       1  UNL1        0.0308
     58 H           0.6628   10.9325    4.4459 H       1  UNL1        0.0308
     59 H          -3.3770   11.1524    2.1965 H       1  UNL1        0.0448
     60 H          -3.6034   11.1774    3.9518 H       1  UNL1        0.0448
     61 H          -3.6560    8.7136    3.8229 H       1  UNL1        0.1183
     62 H          -3.7377    8.8500    2.1974 H       1  UNL1        0.1183
     63 H          -2.0037   13.1002    3.5709 H       1  UNL1        0.2099
     64 H           2.8988    9.7147    3.2696 H       1  UNL1        0.1186
     65 H           2.1460    8.3995    2.6728 H       1  UNL1        0.1186
     66 H          -0.0822    6.3025    4.7856 H       1  UNL1        0.1185
     67 H           0.2812    7.6889    4.0251 H       1  UNL1        0.1185
     68 H          -0.4686    1.8855    1.7030 H       1  UNL1        0.1185
     69 H          -1.6961    2.5109    0.8378 H       1  UNL1        0.1185
@<TRIPOS>BOND
     1     1     2    1
     2     3     1    1
     3     3     4    1
     4     5     3    1
     5     5     6    1
     6     7     5    1
     7     7     8    1
     8     9     7    1
     9     9    10    1
    10    11     9    1
    11    12    11    1
    12    13     9    1
    13    13     1    1
    14    14     7    1
    15    15     5    1
    16    16     3    1
    17    17     1    1
    18    18    17    1
    19    18    19    1
    20    20    18    1
    21    20    21    1
    22    22    20    1
    23    23    22    1
    24    23    24    1
    25    25    23    1
    26    25    26    1
    27    27    25    1
    28    27    28    1
    29    27    18    1
    30    29    27    1
    31    30    25    1
    32    31    30    1
    33    31    32    1
    34    33    31    1
    35    33    34    1
    36    35    33    1
    37    36    35    1
    38    36    37    1
    39    38    36    1
    40    38    39    1
    41    40    38    1
    42    41    40    1
    43    42    38    1
    44    42    31    1
    45    43    36    1
    46    44    33    1
    47    45    23    1
    48    46    20    1
    49    11    47    1
    50    11    48    1
    51    12    49    1
    52    14    50    1
    53    15    51    1
    54    15    52    1
    55    16    53    1
    56    22    54    1
    57    22    55    1
    58    29    56    1
    59    35    57    1
    60    35    58    1
    61    40    59    1
    62    40    60    1
    63    41    61    1
    64    41    62    1
    65    43    63    1
    66    44    64    1
    67    44    65    1
    68    45    66    1
    69    45    67    1
    70    46    68    1
    71    46    69    1
