@<TRIPOS>MOLECULE
2BEE_JS4_A_50
 106 109 0 0 0
SMALL
GASTEIGER

@<TRIPOS>ATOM
      1 C           3.4437   16.7497    2.6809 C.3     1  UNL1        0.1776
      2 H           3.5743   17.6790    2.1297 H       1  UNL1        0.0927
      3 O           4.6348   15.9762    2.5225 O.3     1  UNL1       -0.3422
      4 C           5.0987   15.7405    1.1618 C.3     1  UNL1        0.1055
      5 H           6.0944   15.2964    1.2905 H       1  UNL1        0.0639
      6 C           5.2634   17.0783    0.3501 C.3     1  UNL1        0.0355
      7 H           4.2789   17.5423    0.2235 H       1  UNL1        0.0485
      8 C           5.8179   16.8495   -1.0565 C.3     1  UNL1       -0.0175
      9 C           4.9389   15.8841   -1.8341 C.3     1  UNL1        0.0351
     10 H           3.9243   16.2730   -1.9321 H       1  UNL1        0.0485
     11 N           5.4828   15.7258   -3.1934 N.3     1  UNL1       -0.3250
     12 C           4.8329   14.5063   -1.0932 C.3     1  UNL1        0.0990
     13 H           5.8213   14.0377   -1.0343 H       1  UNL1        0.0636
     14 C           4.2464   14.7152    0.3355 C.3     1  UNL1        0.1166
     15 H           3.2751   15.1937    0.1681 H       1  UNL1        0.0650
     16 O           3.8567   13.4992    0.9947 O.3     1  UNL1       -0.3402
     17 C           4.7744   12.4505    1.3106 C.3     1  UNL1        0.1887
     18 H           5.5857   12.8221    1.9270 H       1  UNL1        0.0938
     19 C           3.9581   11.2959    1.9555 C.3     1  UNL1        0.1380
     20 H           3.0585   11.2227    1.3275 H       1  UNL1        0.0674
     21 O           3.3856   11.4105    3.2559 O.3     1  UNL1       -0.3676
     22 C           4.1219   11.9353    4.3473 C.3     1  UNL1        0.0608
     23 C           4.4872   13.4102    4.2159 C.3     1  UNL1        0.0194
     24 N           4.7736   14.0921    5.4766 N.3     1  UNL1       -0.3138
     25 C           6.0862   13.7511    6.0025 C.3     1  UNL1       -0.0029
     26 C           6.4427   14.7615    7.0935 C.3     1  UNL1       -0.0281
     27 C           7.6860   14.3022    7.8392 C.3     1  UNL1       -0.0058
     28 N           8.0162   15.2326    8.9069 N.3     1  UNL1       -0.3299
     29 C           4.7356   10.0130    1.6478 C.3     1  UNL1        0.1208
     30 H           4.0722    9.1607    1.4774 H       1  UNL1        0.0651
     31 C           5.4628   10.4367    0.3362 C.3     1  UNL1        0.1135
     32 H           6.5244   10.1669    0.3793 H       1  UNL1        0.0647
     33 O           5.4063   11.8792    0.1729 O.3     1  UNL1       -0.3405
     34 C           4.8642    9.8671   -0.9524 C.3     1  UNL1        0.0730
     35 O           3.4932   10.2319   -1.1056 O.3     1  UNL1       -0.3924
     36 O           5.7238    9.6659    2.6310 O.3     1  UNL1       -0.3410
     37 C           5.4699    8.5702    3.5548 C.3     1  UNL1        0.1776
     38 H           5.0464    9.0222    4.4591 H       1  UNL1        0.0927
     39 C           6.8760    7.9415    3.8746 C.3     1  UNL1        0.0853
     40 H           7.5429    8.7306    4.2361 H       1  UNL1        0.0535
     41 N           7.4727    7.3820    2.6262 N.3     1  UNL1       -0.3211
     42 C           6.7649    6.8284    4.9495 C.3     1  UNL1        0.1033
     43 H           7.7360    6.3194    5.0237 H       1  UNL1        0.0637
     44 O           6.4948    7.3125    6.2715 O.3     1  UNL1       -0.3874
     45 C           5.6998    5.7984    4.5738 C.3     1  UNL1        0.1100
     46 H           5.5150    5.1348    5.4319 H       1  UNL1        0.0646
     47 O           6.1981    4.9785    3.5032 O.3     1  UNL1       -0.3866
     48 C           4.3811    6.5053    4.1726 C.3     1  UNL1        0.1022
     49 H           3.9705    7.0210    5.0574 H       1  UNL1        0.0636
     50 O           4.5945    7.5069    3.1302 O.3     1  UNL1       -0.3425
     51 C           3.3873    5.4134    3.7172 C.3     1  UNL1        0.0222
     52 N           2.0137    5.8667    3.5241 N.3     1  UNL1       -0.3276
     53 O           3.9908   13.6374   -1.8782 O.3     1  UNL1       -0.3876
     54 N           6.1165   18.0683    1.0276 N.3     1  UNL1       -0.3250
     55 C           3.2020   17.1788    4.1722 C.3     1  UNL1        0.0853
     56 H           4.0739   17.7498    4.5135 H       1  UNL1        0.0535
     57 N           2.9862   16.0871    5.1419 N.3     1  UNL1       -0.3211
     58 C           1.9310   18.0555    4.2248 C.3     1  UNL1        0.1033
     59 H           1.6878   18.2771    5.2723 H       1  UNL1        0.0637
     60 O           2.1597   19.3107    3.5777 O.3     1  UNL1       -0.3874
     61 C           0.7327   17.3254    3.5705 C.3     1  UNL1        0.1109
     62 H          -0.1202   18.0049    3.4890 H       1  UNL1        0.0646
     63 O           0.2884   16.2188    4.3685 O.3     1  UNL1       -0.3865
     64 C           1.1039   16.8080    2.1669 C.3     1  UNL1        0.1129
     65 H           0.3450   16.0853    1.8423 H       1  UNL1        0.0647
     66 O           2.3185   16.0376    2.1921 O.3     1  UNL1       -0.3415
     67 C           1.1641   17.9269    1.1075 C.3     1  UNL1        0.0730
     68 O           1.6060   17.4209   -0.1519 O.3     1  UNL1       -0.3924
     69 H           6.8490   16.4747   -0.9993 H       1  UNL1        0.0297
     70 H           5.8595   17.8057   -1.5975 H       1  UNL1        0.0297
     71 H           5.0507   14.8992   -3.6040 H       1  UNL1        0.1185
     72 H           5.2052   16.5208   -3.7623 H       1  UNL1        0.1185
     73 H           4.9924   11.3219    4.5821 H       1  UNL1        0.0573
     74 H           3.4344   11.8503    5.1994 H       1  UNL1        0.0573
     75 H           3.6607   13.9046    3.6999 H       1  UNL1        0.0446
     76 H           5.3575   13.5605    3.5844 H       1  UNL1        0.0446
     77 H           4.0498   13.8796    6.1662 H       1  UNL1        0.1220
     78 H           6.8518   13.8004    5.2174 H       1  UNL1        0.0424
     79 H           6.0701   12.7328    6.4015 H       1  UNL1        0.0424
     80 H           5.6054   14.8750    7.7916 H       1  UNL1        0.0290
     81 H           6.6139   15.7472    6.6343 H       1  UNL1        0.0290
     82 H           8.5316   14.2086    7.1453 H       1  UNL1        0.0422
     83 H           7.5065   13.3136    8.2755 H       1  UNL1        0.0422
     84 H           8.1799   16.1605    8.5036 H       1  UNL1        0.1182
     85 H           8.8931   14.9487    9.3537 H       1  UNL1        0.1182
     86 H           5.3960   10.2723   -1.8222 H       1  UNL1        0.0584
     87 H           4.9433    8.7780   -0.9766 H       1  UNL1        0.0584
     88 H           3.5024   11.1727   -1.3768 H       1  UNL1        0.2095
     89 H           6.7269    6.8233    2.1854 H       1  UNL1        0.1187
     90 H           8.1700    6.6776    2.8674 H       1  UNL1        0.1187
     91 H           6.1962    8.2346    6.2394 H       1  UNL1        0.2100
     92 H           6.0950    4.0451    3.7617 H       1  UNL1        0.2100
     93 H           3.3662    4.6145    4.4714 H       1  UNL1        0.0448
     94 H           3.7313    4.9674    2.7798 H       1  UNL1        0.0448
     95 H           1.6355    6.2532    4.3858 H       1  UNL1        0.1183
     96 H           1.4302    5.0661    3.2811 H       1  UNL1        0.1183
     97 H           3.0738   13.9321   -1.7539 H       1  UNL1        0.2100
     98 H           5.7083   18.3277    1.9222 H       1  UNL1        0.1185
     99 H           6.1598   18.9213    0.4680 H       1  UNL1        0.1185
    100 H           2.6063   15.2961    4.6073 H       1  UNL1        0.1187
    101 H           3.9240   15.7079    5.3682 H       1  UNL1        0.1187
    102 H           3.0510   19.6179    3.8204 H       1  UNL1        0.2100
    103 H           0.9408   16.0850    5.0866 H       1  UNL1        0.2100
    104 H           0.1767   18.3772    0.9777 H       1  UNL1        0.0584
    105 H           1.8606   18.7257    1.3593 H       1  UNL1        0.0584
    106 H           1.2466   16.5216   -0.2401 H       1  UNL1        0.2095
@<TRIPOS>BOND
     1     1    55    1
     2     1    66    1
     3     1     3    1
     4     1     2    1
     5     4     6    1
     6     4     5    1
     7     4     3    1
     8     6     7    1
     9     6     8    1
    10     6    54    1
    11     8     9    1
    12     8    69    1
    13     8    70    1
    14     9    12    1
    15     9    11    1
    16     9    10    1
    17    11    71    1
    18    11    72    1
    19    12    13    1
    20    12    14    1
    21    12    53    1
    22    14     4    1
    23    14    16    1
    24    14    15    1
    25    16    17    1
    26    17    18    1
    27    17    19    1
    28    17    33    1
    29    19    29    1
    30    19    21    1
    31    19    20    1
    32    21    22    1
    33    22    23    1
    34    22    73    1
    35    22    74    1
    36    23    24    1
    37    23    75    1
    38    23    76    1
    39    24    25    1
    40    24    77    1
    41    25    26    1
    42    25    78    1
    43    25    79    1
    44    26    27    1
    45    26    80    1
    46    26    81    1
    47    27    28    1
    48    27    82    1
    49    27    83    1
    50    28    84    1
    51    28    85    1
    52    29    30    1
    53    29    31    1
    54    29    36    1
    55    31    33    1
    56    31    34    1
    57    31    32    1
    58    34    35    1
    59    34    86    1
    60    34    87    1
    61    35    88    1
    62    37    39    1
    63    37    50    1
    64    37    38    1
    65    37    36    1
    66    39    42    1
    67    39    41    1
    68    39    40    1
    69    41    89    1
    70    41    90    1
    71    42    45    1
    72    42    44    1
    73    42    43    1
    74    44    91    1
    75    45    46    1
    76    45    47    1
    77    45    48    1
    78    47    92    1
    79    48    49    1
    80    48    50    1
    81    48    51    1
    82    51    52    1
    83    51    93    1
    84    51    94    1
    85    52    95    1
    86    52    96    1
    87    53    97    1
    88    54    98    1
    89    54    99    1
    90    55    58    1
    91    55    57    1
    92    55    56    1
    93    57   100    1
    94    57   101    1
    95    58    61    1
    96    58    60    1
    97    58    59    1
    98    60   102    1
    99    61    62    1
   100    61    63    1
   101    63   103    1
   102    64    61    1
   103    64    66    1
   104    64    67    1
   105    64    65    1
   106    67    68    1
   107    67   104    1
   108    67   105    1
   109    68   106    1
