2BEE_JS4_A_50
 OpenBabel03221817193D

106109  0  0  1  0  0  0  0  0999 V2000
    3.4437   16.7497    2.6809 C   0  0  2  0  0  0  0  0  0  0  0  0
    3.5743   17.6790    2.1297 H   0  0  0  0  0  0  0  0  0  0  0  0
    4.6348   15.9762    2.5225 O   0  0  0  0  0  0  0  0  0  0  0  0
    5.0987   15.7405    1.1618 C   0  0  2  0  0  0  0  0  0  0  0  0
    6.0944   15.2964    1.2905 H   0  0  0  0  0  0  0  0  0  0  0  0
    5.2634   17.0783    0.3501 C   0  0  2  0  0  0  0  0  0  0  0  0
    4.2789   17.5423    0.2235 H   0  0  0  0  0  0  0  0  0  0  0  0
    5.8179   16.8495   -1.0565 C   0  0  0  0  0  0  0  0  0  0  0  0
    4.9389   15.8841   -1.8341 C   0  0  1  0  0  0  0  0  0  0  0  0
    3.9243   16.2730   -1.9321 H   0  0  0  0  0  0  0  0  0  0  0  0
    5.4828   15.7258   -3.1934 N   0  0  0  0  0  0  0  0  0  0  0  0
    4.8329   14.5063   -1.0932 C   0  0  1  0  0  0  0  0  0  0  0  0
    5.8213   14.0377   -1.0343 H   0  0  0  0  0  0  0  0  0  0  0  0
    4.2464   14.7152    0.3355 C   0  0  1  0  0  0  0  0  0  0  0  0
    3.2751   15.1937    0.1681 H   0  0  0  0  0  0  0  0  0  0  0  0
    3.8567   13.4992    0.9947 O   0  0  0  0  0  0  0  0  0  0  0  0
    4.7744   12.4505    1.3106 C   0  0  1  0  0  0  0  0  0  0  0  0
    5.5857   12.8221    1.9270 H   0  0  0  0  0  0  0  0  0  0  0  0
    3.9581   11.2959    1.9555 C   0  0  2  0  0  0  0  0  0  0  0  0
    3.0585   11.2227    1.3275 H   0  0  0  0  0  0  0  0  0  0  0  0
    3.3856   11.4105    3.2559 O   0  0  0  0  0  0  0  0  0  0  0  0
    4.1219   11.9353    4.3473 C   0  0  0  0  0  0  0  0  0  0  0  0
    4.4872   13.4102    4.2159 C   0  0  0  0  0  0  0  0  0  0  0  0
    4.7736   14.0921    5.4766 N   0  0  0  0  0  0  0  0  0  0  0  0
    6.0862   13.7511    6.0025 C   0  0  0  0  0  0  0  0  0  0  0  0
    6.4427   14.7615    7.0935 C   0  0  0  0  0  0  0  0  0  0  0  0
    7.6860   14.3022    7.8392 C   0  0  0  0  0  0  0  0  0  0  0  0
    8.0162   15.2326    8.9069 N   0  0  0  0  0  0  0  0  0  0  0  0
    4.7356   10.0130    1.6478 C   0  0  1  0  0  0  0  0  0  0  0  0
    4.0722    9.1607    1.4774 H   0  0  0  0  0  0  0  0  0  0  0  0
    5.4628   10.4367    0.3362 C   0  0  2  0  0  0  0  0  0  0  0  0
    6.5244   10.1669    0.3793 H   0  0  0  0  0  0  0  0  0  0  0  0
    5.4063   11.8792    0.1729 O   0  0  0  0  0  0  0  0  0  0  0  0
    4.8642    9.8671   -0.9524 C   0  0  0  0  0  0  0  0  0  0  0  0
    3.4932   10.2319   -1.1056 O   0  0  0  0  0  0  0  0  0  0  0  0
    5.7238    9.6659    2.6310 O   0  0  0  0  0  0  0  0  0  0  0  0
    5.4699    8.5702    3.5548 C   0  0  2  0  0  0  0  0  0  0  0  0
    5.0464    9.0222    4.4591 H   0  0  0  0  0  0  0  0  0  0  0  0
    6.8760    7.9415    3.8746 C   0  0  2  0  0  0  0  0  0  0  0  0
    7.5429    8.7306    4.2361 H   0  0  0  0  0  0  0  0  0  0  0  0
    7.4727    7.3820    2.6262 N   0  0  0  0  0  0  0  0  0  0  0  0
    6.7649    6.8284    4.9495 C   0  0  1  0  0  0  0  0  0  0  0  0
    7.7360    6.3194    5.0237 H   0  0  0  0  0  0  0  0  0  0  0  0
    6.4948    7.3125    6.2715 O   0  0  0  0  0  0  0  0  0  0  0  0
    5.6998    5.7984    4.5738 C   0  0  2  0  0  0  0  0  0  0  0  0
    5.5150    5.1348    5.4319 H   0  0  0  0  0  0  0  0  0  0  0  0
    6.1981    4.9785    3.5032 O   0  0  0  0  0  0  0  0  0  0  0  0
    4.3811    6.5053    4.1726 C   0  0  1  0  0  0  0  0  0  0  0  0
    3.9705    7.0210    5.0574 H   0  0  0  0  0  0  0  0  0  0  0  0
    4.5945    7.5069    3.1302 O   0  0  0  0  0  0  0  0  0  0  0  0
    3.3873    5.4134    3.7172 C   0  0  0  0  0  0  0  0  0  0  0  0
    2.0137    5.8667    3.5241 N   0  0  0  0  0  0  0  0  0  0  0  0
    3.9908   13.6374   -1.8782 O   0  0  0  0  0  0  0  0  0  0  0  0
    6.1165   18.0683    1.0276 N   0  0  0  0  0  0  0  0  0  0  0  0
    3.2020   17.1788    4.1722 C   0  0  2  0  0  0  0  0  0  0  0  0
    4.0739   17.7498    4.5135 H   0  0  0  0  0  0  0  0  0  0  0  0
    2.9862   16.0871    5.1419 N   0  0  0  0  0  0  0  0  0  0  0  0
    1.9310   18.0555    4.2248 C   0  0  1  0  0  0  0  0  0  0  0  0
    1.6878   18.2771    5.2723 H   0  0  0  0  0  0  0  0  0  0  0  0
    2.1597   19.3107    3.5777 O   0  0  0  0  0  0  0  0  0  0  0  0
    0.7327   17.3254    3.5705 C   0  0  2  0  0  0  0  0  0  0  0  0
   -0.1202   18.0049    3.4890 H   0  0  0  0  0  0  0  0  0  0  0  0
    0.2884   16.2188    4.3685 O   0  0  0  0  0  0  0  0  0  0  0  0
    1.1039   16.8080    2.1669 C   0  0  2  0  0  0  0  0  0  0  0  0
    0.3450   16.0853    1.8423 H   0  0  0  0  0  0  0  0  0  0  0  0
    2.3185   16.0376    2.1921 O   0  0  0  0  0  0  0  0  0  0  0  0
    1.1641   17.9269    1.1075 C   0  0  0  0  0  0  0  0  0  0  0  0
    1.6060   17.4209   -0.1519 O   0  0  0  0  0  0  0  0  0  0  0  0
    6.8490   16.4747   -0.9993 H   0  0  0  0  0  0  0  0  0  0  0  0
    5.8595   17.8057   -1.5975 H   0  0  0  0  0  0  0  0  0  0  0  0
    5.0507   14.8992   -3.6040 H   0  0  0  0  0  0  0  0  0  0  0  0
    5.2052   16.5208   -3.7623 H   0  0  0  0  0  0  0  0  0  0  0  0
    4.9924   11.3219    4.5821 H   0  0  0  0  0  0  0  0  0  0  0  0
    3.4344   11.8503    5.1994 H   0  0  0  0  0  0  0  0  0  0  0  0
    3.6607   13.9046    3.6999 H   0  0  0  0  0  0  0  0  0  0  0  0
    5.3575   13.5605    3.5844 H   0  0  0  0  0  0  0  0  0  0  0  0
    4.0498   13.8796    6.1662 H   0  0  0  0  0  0  0  0  0  0  0  0
    6.8518   13.8004    5.2174 H   0  0  0  0  0  0  0  0  0  0  0  0
    6.0701   12.7328    6.4015 H   0  0  0  0  0  0  0  0  0  0  0  0
    5.6054   14.8750    7.7916 H   0  0  0  0  0  0  0  0  0  0  0  0
    6.6139   15.7472    6.6343 H   0  0  0  0  0  0  0  0  0  0  0  0
    8.5316   14.2086    7.1453 H   0  0  0  0  0  0  0  0  0  0  0  0
    7.5065   13.3136    8.2755 H   0  0  0  0  0  0  0  0  0  0  0  0
    8.1799   16.1605    8.5036 H   0  0  0  0  0  0  0  0  0  0  0  0
    8.8931   14.9487    9.3537 H   0  0  0  0  0  0  0  0  0  0  0  0
    5.3960   10.2723   -1.8222 H   0  0  0  0  0  0  0  0  0  0  0  0
    4.9433    8.7780   -0.9766 H   0  0  0  0  0  0  0  0  0  0  0  0
    3.5024   11.1727   -1.3768 H   0  0  0  0  0  0  0  0  0  0  0  0
    6.7269    6.8233    2.1854 H   0  0  0  0  0  0  0  0  0  0  0  0
    8.1700    6.6776    2.8674 H   0  0  0  0  0  0  0  0  0  0  0  0
    6.1962    8.2346    6.2394 H   0  0  0  0  0  0  0  0  0  0  0  0
    6.0950    4.0451    3.7617 H   0  0  0  0  0  0  0  0  0  0  0  0
    3.3662    4.6145    4.4714 H   0  0  0  0  0  0  0  0  0  0  0  0
    3.7313    4.9674    2.7798 H   0  0  0  0  0  0  0  0  0  0  0  0
    1.6355    6.2532    4.3858 H   0  0  0  0  0  0  0  0  0  0  0  0
    1.4302    5.0661    3.2811 H   0  0  0  0  0  0  0  0  0  0  0  0
    3.0738   13.9321   -1.7539 H   0  0  0  0  0  0  0  0  0  0  0  0
    5.7083   18.3277    1.9222 H   0  0  0  0  0  0  0  0  0  0  0  0
    6.1598   18.9213    0.4680 H   0  0  0  0  0  0  0  0  0  0  0  0
    2.6063   15.2961    4.6073 H   0  0  0  0  0  0  0  0  0  0  0  0
    3.9240   15.7079    5.3682 H   0  0  0  0  0  0  0  0  0  0  0  0
    3.0510   19.6179    3.8204 H   0  0  0  0  0  0  0  0  0  0  0  0
    0.9408   16.0850    5.0866 H   0  0  0  0  0  0  0  0  0  0  0  0
    0.1767   18.3772    0.9777 H   0  0  0  0  0  0  0  0  0  0  0  0
    1.8606   18.7257    1.3593 H   0  0  0  0  0  0  0  0  0  0  0  0
    1.2466   16.5216   -0.2401 H   0  0  0  0  0  0  0  0  0  0  0  0
  1 55  1  1  0  0  0
  1 66  1  0  0  0  0
  1  3  1  0  0  0  0
  1  2  1  0  0  0  0
  4  6  1  6  0  0  0
  4  5  1  0  0  0  0
  4  3  1  0  0  0  0
  6  7  1  6  0  0  0
  6  8  1  0  0  0  0
  6 54  1  0  0  0  0
  8  9  1  0  0  0  0
  8 69  1  0  0  0  0
  8 70  1  0  0  0  0
  9 12  1  1  0  0  0
  9 11  1  0  0  0  0
  9 10  1  0  0  0  0
 11 71  1  0  0  0  0
 11 72  1  0  0  0  0
 12 13  1  0  0  0  0
 12 14  1  1  0  0  0
 12 53  1  0  0  0  0
 14  4  1  1  0  0  0
 14 16  1  0  0  0  0
 14 15  1  0  0  0  0
 16 17  1  0  0  0  0
 17 18  1  0  0  0  0
 17 19  1  1  0  0  0
 17 33  1  0  0  0  0
 19 29  1  6  0  0  0
 19 21  1  0  0  0  0
 19 20  1  0  0  0  0
 21 22  1  0  0  0  0
 22 23  1  0  0  0  0
 22 73  1  0  0  0  0
 22 74  1  0  0  0  0
 23 24  1  0  0  0  0
 23 75  1  0  0  0  0
 23 76  1  0  0  0  0
 24 25  1  0  0  0  0
 24 77  1  0  0  0  0
 25 26  1  0  0  0  0
 25 78  1  0  0  0  0
 25 79  1  0  0  0  0
 26 27  1  0  0  0  0
 26 80  1  0  0  0  0
 26 81  1  0  0  0  0
 27 28  1  0  0  0  0
 27 82  1  0  0  0  0
 27 83  1  0  0  0  0
 28 84  1  0  0  0  0
 28 85  1  0  0  0  0
 29 30  1  0  0  0  0
 29 31  1  6  0  0  0
 29 36  1  0  0  0  0
 31 33  1  0  0  0  0
 31 34  1  0  0  0  0
 31 32  1  1  0  0  0
 34 35  1  0  0  0  0
 34 86  1  0  0  0  0
 34 87  1  0  0  0  0
 35 88  1  0  0  0  0
 37 39  1  1  0  0  0
 37 50  1  0  0  0  0
 37 38  1  0  0  0  0
 37 36  1  0  0  0  0
 39 42  1  1  0  0  0
 39 41  1  0  0  0  0
 39 40  1  0  0  0  0
 41 89  1  0  0  0  0
 41 90  1  0  0  0  0
 42 45  1  6  0  0  0
 42 44  1  0  0  0  0
 42 43  1  0  0  0  0
 44 91  1  0  0  0  0
 45 46  1  0  0  0  0
 45 47  1  0  0  0  0
 45 48  1  6  0  0  0
 47 92  1  0  0  0  0
 48 49  1  1  0  0  0
 48 50  1  0  0  0  0
 48 51  1  0  0  0  0
 51 52  1  0  0  0  0
 51 93  1  0  0  0  0
 51 94  1  0  0  0  0
 52 95  1  0  0  0  0
 52 96  1  0  0  0  0
 53 97  1  0  0  0  0
 54 98  1  0  0  0  0
 54 99  1  0  0  0  0
 55 58  1  1  0  0  0
 55 57  1  0  0  0  0
 55 56  1  0  0  0  0
 57100  1  0  0  0  0
 57101  1  0  0  0  0
 58 61  1  6  0  0  0
 58 60  1  0  0  0  0
 58 59  1  0  0  0  0
 60102  1  0  0  0  0
 61 62  1  6  0  0  0
 61 63  1  0  0  0  0
 63103  1  0  0  0  0
 64 61  1  1  0  0  0
 64 66  1  0  0  0  0
 64 67  1  0  0  0  0
 64 65  1  0  0  0  0
 67 68  1  0  0  0  0
 67104  1  0  0  0  0
 67105  1  0  0  0  0
 68106  1  0  0  0  0
M  END
$$$$
