REMARK  16 active torsions:
REMARK  status: ('A' for Active; 'I' for Inactive)
REMARK    1  A    between atoms: C_1  and  N_2 
REMARK       I    between atoms: N_2  and  C_3 
REMARK       I    between atoms: C_3  and  N_5 
REMARK    2  A    between atoms: C_6  and  O_7 
REMARK    3  A    between atoms: C_8  and  N_9 
REMARK       I    between atoms: N_9  and  C_10 
REMARK       I    between atoms: C_10  and  N_12 
REMARK    4  A    between atoms: C_13  and  O_14 
REMARK    5  A    between atoms: O_14  and  C_15 
REMARK    6  A    between atoms: C_16  and  O_24 
REMARK    7  A    between atoms: C_17  and  C_19 
REMARK    8  A    between atoms: C_17  and  O_18 
REMARK    9  A    between atoms: O_24  and  C_25 
REMARK   10  A    between atoms: C_26  and  N_27 
REMARK   11  A    between atoms: C_29  and  O_30 
REMARK   12  A    between atoms: C_31  and  O_32 
REMARK   13  A    between atoms: C_33  and  C_35 
REMARK   14  A    between atoms: C_35  and  O_36 
REMARK   15  A    between atoms: C_37  and  O_38 
REMARK   16  A    between atoms: C_39  and  O_40 
ROOT
ATOM      1  C   UNL d   1      -2.412  -3.916  -4.173  0.00  0.00     0.146 C 
ATOM      2  C   UNL d   1      -2.875  -4.754  -2.987  0.00  0.00     0.168 C 
ATOM      3  C   UNL d   1      -1.962  -4.503  -1.781  0.00  0.00     0.146 C 
ATOM      4  C   UNL d   1      -1.907  -3.022  -1.332  0.00  0.00     0.181 C 
ATOM      5  C   UNL d   1      -1.674  -2.090  -2.552  0.00  0.00     0.180 C 
ATOM      6  C   UNL d   1      -2.507  -2.432  -3.800  0.00  0.00     0.174 C 
ENDROOT
BRANCH   4   7
ATOM      7  O   UNL d   1      -0.910  -3.022  -0.288  0.00  0.00    -0.348 OA
BRANCH   7   8
ATOM      8  C   UNL d   1      -0.281  -1.822   0.104  0.00  0.00     0.293 C 
ATOM      9  C   UNL d   1      -0.476  -1.357   1.555  0.00  0.00     0.223 C 
ATOM     10  C   UNL d   1       0.489  -0.103   1.429  0.00  0.00     0.166 C 
ATOM     11  C   UNL d   1       1.676  -1.110   1.180  0.00  0.00     0.165 C 
ATOM     12  C   UNL d   1       3.006  -0.557   0.679  0.00  0.00     0.043 C 
ATOM     13  O   UNL d   1       1.171  -1.977   0.103  0.00  0.00    -0.350 OA
BRANCH   9  14
ATOM     14  O   UNL d   1      -1.841  -1.279   1.939  0.00  0.00    -0.345 OA
BRANCH  14  15
ATOM     15  C   UNL d   1      -2.111  -1.354   3.389  0.00  0.00     0.297 C 
ATOM     16  O   UNL d   1      -1.004  -1.543   4.292  0.00  0.00    -0.349 OA
ATOM     17  C   UNL d   1      -0.810  -2.835   4.893  0.00  0.00     0.179 C 
ATOM     18  C   UNL d   1      -2.101  -3.203   5.636  0.00  0.00     0.180 C 
ATOM     19  C   UNL d   1      -3.197  -3.419   4.585  0.00  0.00     0.187 C 
ATOM     20  C   UNL d   1      -3.434  -2.070   3.842  0.00  0.00     0.305 C 
BRANCH  17  21
ATOM     21  C   UNL d   1       0.431  -2.705   5.788  0.00  0.00     0.198 C 
BRANCH  21  22
ATOM     22  O   UNL d   1       0.871  -3.976   6.232  0.00  0.00    -0.398 OA
ATOM     23  H   UNL d   1       0.144  -4.358   6.751  0.00  0.00     0.209 HD
ENDBRANCH  21  22
ENDBRANCH  17  21
BRANCH  18  24
ATOM     24  O   UNL d   1      -1.969  -4.397   6.407  0.00  0.00    -0.390 OA
ATOM     25  H   UNL d   1      -2.300  -4.196   7.296  0.00  0.00     0.210 HD
ENDBRANCH  18  24
BRANCH  19  26
ATOM     26  O   UNL d   1      -4.388  -3.829   5.276  0.00  0.00    -0.391 OA
ATOM     27  H   UNL d   1      -4.589  -4.739   5.016  0.00  0.00     0.210 HD
ENDBRANCH  19  26
BRANCH  20  28
ATOM     28  N   UNL d   1      -4.353  -2.208   2.703  0.00  0.00     0.091 N 
ATOM     29  C   UNL d   1      -5.744  -2.020   3.072  0.00  0.00     0.307 C 
ATOM     30  H   UNL d   1      -4.098  -1.523   1.993  0.00  0.00     0.316 HD
ENDBRANCH  20  28
ENDBRANCH  14  15
ENDBRANCH   9  14
BRANCH  10  31
ATOM     31  C   UNL d   1      -0.245   0.689   2.507  0.00  0.00     0.274 C 
ATOM     32  O   UNL d   1      -1.027   1.589   2.163  0.00  0.00    -0.303 OA
ENDBRANCH  10  31
BRANCH  10  33
ATOM     33  O   UNL d   1       1.393   0.788   2.174  0.00  0.00    -0.377 OA
ATOM     34  H   UNL d   1       1.821   0.276   2.889  0.00  0.00     0.211 HD
ENDBRANCH  10  33
ENDBRANCH   7   8
ENDBRANCH   4   7
BRANCH   3  35
ATOM     35  N   UNL d   1      -2.337  -5.422  -0.710  0.00  0.00    -0.356 N 
ATOM     36  C   UNL d   1      -3.191  -5.122   0.327  0.00  0.00     0.166 C 
ATOM     37  N   UNL d   1      -4.460  -5.414   0.312  0.00  0.00    -0.274 NA
ATOM     38  N   UNL d   1      -2.557  -4.559   1.410  0.00  0.00    -0.273 NA
ATOM     39  H   UNL d   1      -4.677  -5.852  -0.594  0.00  0.00     0.189 HD
ATOM     40  H   UNL d   1      -2.753  -3.563   1.493  0.00  0.00     0.127 HD
ATOM     41  H   UNL d   1      -1.544  -4.685   1.417  0.00  0.00     0.127 HD
ATOM     42  H   UNL d   1      -1.608  -6.094  -0.489  0.00  0.00     0.162 HD
ENDBRANCH   3  35
BRANCH   5  43
ATOM     43  O   UNL d   1      -2.036  -0.754  -2.205  0.00  0.00    -0.390 OA
ATOM     44  H   UNL d   1      -1.520  -0.173  -2.794  0.00  0.00     0.210 HD
ENDBRANCH   5  43
BRANCH   2  45
ATOM     45  O   UNL d   1      -2.817  -6.147  -3.331  0.00  0.00    -0.391 OA
ATOM     46  H   UNL d   1      -3.641  -6.552  -3.010  0.00  0.00     0.210 HD
ENDBRANCH   2  45
BRANCH   6  47
ATOM     47  O   UNL d   1      -2.057  -1.647  -4.904  0.00  0.00    -0.391 OA
ATOM     48  H   UNL d   1      -1.093  -1.762  -4.998  0.00  0.00     0.210 HD
ENDBRANCH   6  47
BRANCH   1  49
ATOM     49  N   UNL d   1      -3.235  -4.207  -5.357  0.00  0.00    -0.356 N 
ATOM     50  C   UNL d   1      -3.027  -5.352  -6.114  0.00  0.00     0.166 C 
ATOM     51  N   UNL d   1      -3.973  -6.219  -6.358  0.00  0.00    -0.274 NA
ATOM     52  N   UNL d   1      -1.750  -5.510  -6.620  0.00  0.00    -0.273 NA
ATOM     53  H   UNL d   1      -4.836  -5.916  -5.894  0.00  0.00     0.189 HD
ATOM     54  H   UNL d   1      -1.666  -6.223  -7.333  0.00  0.00     0.127 HD
ATOM     55  H   UNL d   1      -1.330  -4.644  -6.952  0.00  0.00     0.127 HD
ATOM     56  H   UNL d   1      -3.488  -3.386  -5.886  0.00  0.00     0.162 HD
ENDBRANCH   1  49
TORSDOF 16
