@<TRIPOS>MOLECULE
1NTB_SRY_A_25
 79 81 0 0 0
SMALL
GASTEIGER

@<TRIPOS>ATOM
      1 C          -2.4124   -3.9157   -4.1727 C.3     1  UNL1        0.1329
      2 H          -1.3663   -4.1397   -4.4129 H       1  UNL1        0.0746
      3 N          -3.2353   -4.2075   -5.3575 N.pl3   1  UNL1       -0.2682
      4 C          -3.0275   -5.3524   -6.1141 C.cat   1  UNL1        0.3766
      5 N          -3.9730   -6.2194   -6.3584 N.pl3   1  UNL1       -0.1298
      6 N          -1.7496   -5.5097   -6.6197 N.pl3   1  UNL1       -0.2893
      7 C          -2.8748   -4.7540   -2.9867 C.3     1  UNL1        0.1266
      8 H          -3.9248   -4.5220   -2.7502 H       1  UNL1        0.0665
      9 O          -2.8173   -6.1467   -3.3309 O.3     1  UNL1       -0.3847
     10 C          -1.9617   -4.5026   -1.7814 C.3     1  UNL1        0.1333
     11 H          -0.9304   -4.7906   -2.0685 H       1  UNL1        0.0746
     12 N          -2.3372   -5.4223   -0.7096 N.pl3   1  UNL1       -0.2682
     13 C          -3.1910   -5.1215    0.3274 C.cat   1  UNL1        0.3766
     14 N          -4.4605   -5.4140    0.3119 N.pl3   1  UNL1       -0.1298
     15 N          -2.5565   -4.5595    1.4098 N.pl3   1  UNL1       -0.2893
     16 C          -1.9074   -3.0225   -1.3317 C.3     1  UNL1        0.1258
     17 H          -2.8509   -2.7086   -0.8719 H       1  UNL1        0.0659
     18 O          -0.9102   -3.0216   -0.2882 O.3     1  UNL1       -0.3392
     19 C          -0.2806   -1.8222    0.1042 C.3     1  UNL1        0.1895
     20 H          -0.5211   -0.9886   -0.5617 H       1  UNL1        0.0938
     21 C          -0.4759   -1.3566    1.5548 C.3     1  UNL1        0.1499
     22 H          -0.0567   -2.1742    2.1661 H       1  UNL1        0.0682
     23 C           0.4890   -0.1030    1.4294 C.3     1  UNL1        0.1770
     24 O           1.3931    0.7884    2.1740 O.3     1  UNL1       -0.3763
     25 C          -0.2452    0.6887    2.5070 C.2     1  UNL1        0.1570
     26 O          -1.0268    1.5893    2.1635 O.2     1  UNL1       -0.2978
     27 C           1.6763   -1.1096    1.1800 C.3     1  UNL1        0.0969
     28 H           1.8680   -1.7165    2.0810 H       1  UNL1        0.0628
     29 C           3.0055   -0.5569    0.6795 C.3     1  UNL1       -0.0354
     30 O           1.1715   -1.9772    0.1034 O.3     1  UNL1       -0.3423
     31 O          -1.8412   -1.2792    1.9387 O.3     1  UNL1       -0.3380
     32 C          -2.1106   -1.3544    3.3886 C.3     1  UNL1        0.1780
     33 H          -2.3463   -0.3015    3.5771 H       1  UNL1        0.0927
     34 C          -3.4339   -2.0700    3.8425 C.3     1  UNL1        0.0876
     35 H          -3.9019   -1.4162    4.5976 H       1  UNL1        0.0537
     36 N          -4.3534   -2.2081    2.7025 N.3     1  UNL1       -0.3099
     37 C          -5.7439   -2.0197    3.0721 C.3     1  UNL1       -0.0153
     38 C          -3.1968   -3.4191    4.5845 C.3     1  UNL1        0.1035
     39 H          -2.8911   -4.2241    3.9055 H       1  UNL1        0.0637
     40 O          -4.3878   -3.8294    5.2758 O.3     1  UNL1       -0.3874
     41 C          -2.1013   -3.2031    5.6355 C.3     1  UNL1        0.1109
     42 H          -2.3765   -2.3902    6.3184 H       1  UNL1        0.0646
     43 O          -1.9690   -4.3971    6.4065 O.3     1  UNL1       -0.3865
     44 C          -0.8100   -2.8348    4.8931 C.3     1  UNL1        0.1129
     45 H          -0.6102   -3.5643    4.0924 H       1  UNL1        0.0647
     46 O          -1.0040   -1.5433    4.2920 O.3     1  UNL1       -0.3415
     47 C           0.4308   -2.7050    5.7881 C.3     1  UNL1        0.0730
     48 O           0.8705   -3.9761    6.2322 O.3     1  UNL1       -0.3924
     49 C          -1.6737   -2.0895   -2.5520 C.3     1  UNL1        0.1138
     50 H          -0.6104   -2.0888   -2.8160 H       1  UNL1        0.0647
     51 O          -2.0359   -0.7538   -2.2052 O.3     1  UNL1       -0.3864
     52 C          -2.5071   -2.4323   -3.7995 C.3     1  UNL1        0.1193
     53 H          -3.5575   -2.1772   -3.6304 H       1  UNL1        0.0656
     54 O          -2.0569   -1.6468   -4.9036 O.3     1  UNL1       -0.3856
     55 H          -3.4880   -3.3864   -5.8859 H       1  UNL1        0.2583
     56 H          -4.8357   -5.9162   -5.8936 H       1  UNL1        0.3062
     57 H          -1.6656   -6.2233   -7.3327 H       1  UNL1        0.2546
     58 H          -1.3296   -4.6444   -6.9518 H       1  UNL1        0.2546
     59 H          -3.6412   -6.5517   -3.0097 H       1  UNL1        0.2101
     60 H          -1.6077   -6.0944   -0.4886 H       1  UNL1        0.2583
     61 H          -4.6770   -5.8516   -0.5942 H       1  UNL1        0.3062
     62 H          -2.7533   -3.5634    1.4933 H       1  UNL1        0.2546
     63 H          -1.5437   -4.6846    1.4169 H       1  UNL1        0.2546
     64 H           1.8212    0.2759    2.8891 H       1  UNL1        0.2109
     65 H          -0.1009    0.4664    3.5823 H       1  UNL1        0.1059
     66 H           3.6452   -0.3288    1.5326 H       1  UNL1        0.0256
     67 H           3.4990   -1.2917    0.0481 H       1  UNL1        0.0256
     68 H           2.8646    0.3518    0.0980 H       1  UNL1        0.0256
     69 H          -4.0984   -1.5231    1.9931 H       1  UNL1        0.1221
     70 H          -6.3686   -2.6823    2.4611 H       1  UNL1        0.0388
     71 H          -5.9663   -2.2405    4.1227 H       1  UNL1        0.0388
     72 H          -6.0749   -0.9975    2.8507 H       1  UNL1        0.0388
     73 H          -4.5888   -4.7389    5.0159 H       1  UNL1        0.2100
     74 H          -2.2996   -4.1963    7.2957 H       1  UNL1        0.2100
     75 H           1.2533   -2.2394    5.2429 H       1  UNL1        0.0584
     76 H           0.2423   -2.0719    6.6573 H       1  UNL1        0.0584
     77 H           0.1436   -4.3583    6.7506 H       1  UNL1        0.2095
     78 H          -1.5202   -0.1730   -2.7944 H       1  UNL1        0.2100
     79 H          -1.0932   -1.7621   -4.9981 H       1  UNL1        0.2100
@<TRIPOS>BOND
     1     1     7    1
     2     1     3    1
     3     1     2    1
     4     3     4    1
     5     3    55    1
     6     4     5    2
     7     4     6    1
     8     5    56    1
     9     6    57    1
    10     6    58    1
    11     7     8    1
    12     7     9    1
    13     7    10    1
    14     9    59    1
    15    10    11    1
    16    10    12    1
    17    10    16    1
    18    12    13    1
    19    12    60    1
    20    13    14    2
    21    13    15    1
    22    14    61    1
    23    15    62    1
    24    15    63    1
    25    16    49    1
    26    16    18    1
    27    16    17    1
    28    18    19    1
    29    19    20    1
    30    19    21    1
    31    19    30    1
    32    21    23    1
    33    21    31    1
    34    21    22    1
    35    23    27    1
    36    23    25    1
    37    23    24    1
    38    24    64    1
    39    25    26    2
    40    25    65    1
    41    27    28    1
    42    27    29    1
    43    27    30    1
    44    29    66    1
    45    29    67    1
    46    29    68    1
    47    31    32    1
    48    32    33    1
    49    32    46    1
    50    34    32    1
    51    34    35    1
    52    34    36    1
    53    36    37    1
    54    36    69    1
    55    37    70    1
    56    37    71    1
    57    37    72    1
    58    38    34    1
    59    38    39    1
    60    38    40    1
    61    40    73    1
    62    41    38    1
    63    41    43    1
    64    41    42    1
    65    43    74    1
    66    44    41    1
    67    44    45    1
    68    44    46    1
    69    44    47    1
    70    47    48    1
    71    47    75    1
    72    47    76    1
    73    48    77    1
    74    49    50    1
    75    49    51    1
    76    49    52    1
    77    51    78    1
    78    52     1    1
    79    52    54    1
    80    52    53    1
    81    54    79    1
