2ESJ_LIV_A_50
 OpenBabel10281720493D
Coordinates from PDB:2ESJ:A:50 Model:1 without hydrogens
107111  0  0  0  0  0  0  0  0999 V2000
   17.1930   -6.5840   18.7250 C   0  0  2  0  0  0  0  0  0  0  0  0
   17.7050   -7.8930   19.0400 O   0  0  0  0  0  0  0  0  0  0  0  0
   17.8890   -5.5670   19.6770 C   0  0  2  0  0  0  0  0  0  0  0  0
   19.3470   -5.6220   19.5750 N   0  0  0  0  0  0  0  0  0  0  0  0
   17.4520   -5.8010   21.1580 C   0  0  0  0  0  0  0  0  0  0  0  0
   15.8970   -5.7610   21.2360 C   0  0  2  0  0  0  0  0  0  0  0  0
   15.4330   -5.8900   22.5680 O   0  0  0  0  0  0  0  0  0  0  0  0
   15.3340   -6.8800   20.3250 C   0  0  2  0  0  0  0  0  0  0  0  0
   15.7660   -6.5890   18.9650 O   0  0  0  0  0  0  0  0  0  0  0  0
   13.8440   -6.9060   20.2840 C   0  0  0  0  0  0  0  0  0  0  0  0
   13.4640   -7.9430   19.4120 O   0  0  0  0  0  0  0  0  0  0  0  0
   19.4380  -11.1550   16.8850 C   0  0  1  0  0  0  0  0  0  0  0  0
   19.6790  -12.3050   15.9980 N   0  0  0  0  0  0  0  0  0  0  0  0
   19.0940   -9.8750   16.0420 C   0  0  2  0  0  0  0  0  0  0  0  0
   20.2400   -9.5800   15.2000 O   0  0  0  0  0  0  0  0  0  0  0  0
   18.8710   -8.6350   16.9720 C   0  0  1  0  0  0  0  0  0  0  0  0
   18.4970   -7.4390   16.2330 O   0  0  0  0  0  0  0  0  0  0  0  0
   17.7870   -8.9400   18.0550 C   0  0  1  0  0  0  0  0  0  0  0  0
   18.0400  -10.2430   18.8570 C   0  0  1  0  0  0  0  0  0  0  0  0
   16.9280  -10.5000   19.7780 N   0  0  0  0  0  0  0  0  0  0  0  0
   18.2450  -11.4650   17.8740 C   0  0  0  0  0  0  0  0  0  0  0  0
   19.5130   -6.6240   15.6920 C   0  0  1  0  0  0  0  0  0  0  0  0
   19.0030   -5.9040   14.4430 C   0  0  2  0  0  0  0  0  0  0  0  0
   19.1870   -6.6860   13.2430 O   0  0  0  0  0  0  0  0  0  0  0  0
   19.8270   -4.6500   14.4940 C   0  0  1  0  0  0  0  0  0  0  0  0
   19.9840   -4.3080   15.9900 C   0  0  2  0  0  0  0  0  0  0  0  0
   19.9400   -5.5920   16.5920 O   0  0  0  0  0  0  0  0  0  0  0  0
   18.8990   -3.4240   16.6040 C   0  0  0  0  0  0  0  0  0  0  0  0
   19.4650   -2.7820   17.7560 O   0  0  0  0  0  0  0  0  0  0  0  0
   24.7630   -2.7350   13.0670 C   0  0  1  0  0  0  0  0  0  0  0  0
   25.5740   -3.7590   13.6450 O   0  0  0  0  0  0  0  0  0  0  0  0
   23.9260   -3.4840   11.9500 C   0  0  2  0  0  0  0  0  0  0  0  0
   23.1230   -2.4780   11.3240 O   0  0  0  0  0  0  0  0  0  0  0  0
   22.9680   -4.5870   12.5830 C   0  0  1  0  0  0  0  0  0  0  0  0
   23.6630   -5.6700   13.3280 N   0  0  0  0  0  0  0  0  0  0  0  0
   21.8830   -3.8650   13.5010 C   0  0  1  0  0  0  0  0  0  0  0  0
   21.1400   -4.9060   14.0640 O   0  0  0  0  0  0  0  0  0  0  0  0
   23.7630   -2.3520   14.1410 C   0  0  1  0  0  0  0  0  0  0  0  0
   22.5580   -3.0230   14.5680 O   0  0  0  0  0  0  0  0  0  0  0  0
   24.3110   -1.5000   15.3270 C   0  0  0  0  0  0  0  0  0  0  0  0
   23.7780   -1.9140   16.6420 N   0  0  0  0  0  0  0  0  0  0  0  0
   27.2260   -3.6090   13.7990 C   0  0  2  0  0  0  0  0  0  0  0  0
   27.3290   -4.5560   14.9890 C   0  0  2  0  0  0  0  0  0  0  0  0
   27.1810   -3.9010   16.3570 C   0  0  2  0  0  0  0  0  0  0  0  0
   28.0530   -2.6580   16.5430 C   0  0  1  0  0  0  0  0  0  0  0  0
   28.0610   -1.7880   15.2910 C   0  0  1  0  0  0  0  0  0  0  0  0
   28.8550   -0.4880   15.1850 C   0  0  0  0  0  0  0  0  0  0  0  0
   28.6050   -5.2260   14.9520 O   0  0  0  0  0  0  0  0  0  0  0  0
   27.5380   -4.8820   17.3370 O   0  0  0  0  0  0  0  0  0  0  0  0
   27.5800   -1.9900   17.7240 O   0  0  0  0  0  0  0  0  0  0  0  0
   27.9430   -2.3640   13.9810 O   0  0  0  0  0  0  0  0  0  0  0  0
   30.2650   -0.7820   15.0000 O   0  0  0  0  0  0  0  0  0  0  0  0
   17.3811   -6.3187   17.7056 H   0  0  0  0  0  0  0  0  0  0  0  0
   17.5757   -4.5920   19.3670 H   0  0  0  0  0  0  0  0  0  0  0  0
   19.6736   -6.5436   19.8655 H   0  0  0  0  0  0  0  0  0  0  0  0
   19.7572   -4.9099   20.1792 H   0  0  0  0  0  0  0  0  0  0  0  0
   17.8629   -5.0331   21.7796 H   0  0  0  0  0  0  0  0  0  0  0  0
   17.8081   -6.7518   21.4957 H   0  0  0  0  0  0  0  0  0  0  0  0
   15.5484   -4.8092   20.8933 H   0  0  0  0  0  0  0  0  0  0  0  0
   15.7229   -6.7418   22.9303 H   0  0  0  0  0  0  0  0  0  0  0  0
   15.6845   -7.8146   20.7105 H   0  0  0  0  0  0  0  0  0  0  0  0
   13.4719   -5.9700   19.9229 H   0  0  0  0  0  0  0  0  0  0  0  0
   13.4424   -7.0694   21.2622 H   0  0  0  0  0  0  0  0  0  0  0  0
   13.8366   -7.7781   18.5317 H   0  0  0  0  0  0  0  0  0  0  0  0
   20.3291  -10.9763   17.4497 H   0  0  0  0  0  0  0  0  0  0  0  0
   18.8399  -12.4929   15.4493 H   0  0  0  0  0  0  0  0  0  0  0  0
   19.9089  -13.1250   16.5593 H   0  0  0  0  0  0  0  0  0  0  0  0
   18.2048  -10.0600   15.4762 H   0  0  0  0  0  0  0  0  0  0  0  0
   21.0179   -9.4204   15.7570 H   0  0  0  0  0  0  0  0  0  0  0  0
   19.8105   -8.4433   17.4469 H   0  0  0  0  0  0  0  0  0  0  0  0
   16.8871   -9.0324   17.4835 H   0  0  0  0  0  0  0  0  0  0  0  0
   18.9334  -10.1215   19.4332 H   0  0  0  0  0  0  0  0  0  0  0  0
   16.0661  -10.6187   19.2456 H   0  0  0  0  0  0  0  0  0  0  0  0
   16.8269   -9.7117   20.4173 H   0  0  0  0  0  0  0  0  0  0  0  0
   18.4714  -12.3439   18.4407 H   0  0  0  0  0  0  0  0  0  0  0  0
   17.3487  -11.6228   17.3113 H   0  0  0  0  0  0  0  0  0  0  0  0
   20.3284   -7.2844   15.4825 H   0  0  0  0  0  0  0  0  0  0  0  0
   17.9493   -5.7192   14.4224 H   0  0  0  0  0  0  0  0  0  0  0  0
   20.1238   -6.9197   13.1499 H   0  0  0  0  0  0  0  0  0  0  0  0
   19.3638   -3.8937   13.8954 H   0  0  0  0  0  0  0  0  0  0  0  0
   20.8719   -3.7304   16.1414 H   0  0  0  0  0  0  0  0  0  0  0  0
   18.0612   -4.0228   16.8945 H   0  0  0  0  0  0  0  0  0  0  0  0
   18.5606   -2.6966   15.8959 H   0  0  0  0  0  0  0  0  0  0  0  0
   19.7659   -3.4552   18.3862 H   0  0  0  0  0  0  0  0  0  0  0  0
   25.3180   -1.8961   12.7021 H   0  0  0  0  0  0  0  0  0  0  0  0
   24.5796   -3.9816   11.2644 H   0  0  0  0  0  0  0  0  0  0  0  0
   22.5520   -2.0607   11.9878 H   0  0  0  0  0  0  0  0  0  0  0  0
   22.4993   -5.0905   11.7634 H   0  0  0  0  0  0  0  0  0  0  0  0
   24.1425   -5.2732   14.1361 H   0  0  0  0  0  0  0  0  0  0  0  0
   24.3435   -6.1208   12.7164 H   0  0  0  0  0  0  0  0  0  0  0  0
   21.2622   -3.1926   12.9467 H   0  0  0  0  0  0  0  0  0  0  0  0
   23.3205   -1.9223   13.2667 H   0  0  0  0  0  0  0  0  0  0  0  0
   24.0462   -0.4768   15.1605 H   0  0  0  0  0  0  0  0  0  0  0  0
   25.3709   -1.6436   15.3561 H   0  0  0  0  0  0  0  0  0  0  0  0
   22.7655   -1.7909   16.6525 H   0  0  0  0  0  0  0  0  0  0  0  0
   24.1978   -1.3416   17.3745 H   0  0  0  0  0  0  0  0  0  0  0  0
   27.7185   -3.7794   12.8645 H   0  0  0  0  0  0  0  0  0  0  0  0
   26.5031   -5.2282   14.8843 H   0  0  0  0  0  0  0  0  0  0  0  0
   26.1694   -3.5673   16.4582 H   0  0  0  0  0  0  0  0  0  0  0  0
   29.0824   -2.9147   16.6822 H   0  0  0  0  0  0  0  0  0  0  0  0
   27.0904   -1.5178   15.6513 H   0  0  0  0  0  0  0  0  0  0  0  0
   28.7261    0.0803   16.0824 H   0  0  0  0  0  0  0  0  0  0  0  0
   28.4999    0.0735   14.3463 H   0  0  0  0  0  0  0  0  0  0  0  0
   29.3158   -4.5734   15.0507 H   0  0  0  0  0  0  0  0  0  0  0  0
   28.4603   -5.1514   17.2038 H   0  0  0  0  0  0  0  0  0  0  0  0
   26.6466   -1.7522   17.6091 H   0  0  0  0  0  0  0  0  0  0  0  0
   30.5913   -1.2912   15.7584 H   0  0  0  0  0  0  0  0  0  0  0  0
  1  2  1  0  0  0  0
  1  3  1  0  0  0  0
  1  9  1  0  0  0  0
  1 53  1  6  0  0  0
  3  4  1  0  0  0  0
  3  5  1  0  0  0  0
  3 54  1  6  0  0  0
  4 55  1  0  0  0  0
  4 56  1  0  0  0  0
  5  6  1  0  0  0  0
  5 57  1  0  0  0  0
  5 58  1  0  0  0  0
  6  7  1  0  0  0  0
  6  8  1  0  0  0  0
  6 59  1  6  0  0  0
  7 60  1  0  0  0  0
  8  9  1  0  0  0  0
  8 10  1  0  0  0  0
  8 61  1  1  0  0  0
 10 11  1  0  0  0  0
 10 62  1  0  0  0  0
 10 63  1  0  0  0  0
 11 64  1  0  0  0  0
 12 13  1  0  0  0  0
 12 14  1  0  0  0  0
 12 21  1  0  0  0  0
 12 65  1  1  0  0  0
 13 66  1  0  0  0  0
 13 67  1  0  0  0  0
 14 15  1  0  0  0  0
 14 16  1  0  0  0  0
 14 68  1  6  0  0  0
 15 69  1  0  0  0  0
 16 17  1  0  0  0  0
 16 18  1  0  0  0  0
 16 70  1  1  0  0  0
 18  2  1  0  0  0  0
 18 19  1  0  0  0  0
 18 71  1  6  0  0  0
 19 20  1  0  0  0  0
 19 21  1  0  0  0  0
 19 72  1  1  0  0  0
 20 73  1  0  0  0  0
 20 74  1  0  0  0  0
 21 75  1  0  0  0  0
 21 76  1  0  0  0  0
 22 17  1  0  0  0  0
 22 23  1  0  0  0  0
 22 27  1  0  0  0  0
 22 77  1  6  0  0  0
 23 24  1  0  0  0  0
 23 25  1  0  0  0  0
 23 78  1  1  0  0  0
 24 79  1  0  0  0  0
 25 26  1  0  0  0  0
 25 37  1  0  0  0  0
 25 80  1  6  0  0  0
 26 27  1  0  0  0  0
 26 28  1  0  0  0  0
 26 81  1  1  0  0  0
 28 29  1  0  0  0  0
 28 82  1  0  0  0  0
 28 83  1  0  0  0  0
 29 84  1  0  0  0  0
 30 31  1  0  0  0  0
 30 32  1  0  0  0  0
 30 38  1  0  0  0  0
 30 85  1  6  0  0  0
 32 33  1  0  0  0  0
 32 34  1  0  0  0  0
 32 86  1  6  0  0  0
 33 87  1  0  0  0  0
 34 35  1  0  0  0  0
 34 36  1  0  0  0  0
 34 88  1  6  0  0  0
 35 89  1  0  0  0  0
 35 90  1  0  0  0  0
 36 37  1  0  0  0  0
 36 39  1  0  0  0  0
 36 91  1  6  0  0  0
 38 39  1  0  0  0  0
 38 40  1  0  0  0  0
 38 92  1  6  0  0  0
 40 41  1  0  0  0  0
 40 93  1  0  0  0  0
 40 94  1  0  0  0  0
 41 95  1  0  0  0  0
 41 96  1  0  0  0  0
 42 31  1  0  0  0  0
 42 43  1  0  0  0  0
 42 51  1  0  0  0  0
 42 97  1  6  0  0  0
 43 44  1  0  0  0  0
 43 48  1  0  0  0  0
 43 98  1  6  0  0  0
 44 45  1  0  0  0  0
 44 49  1  0  0  0  0
 44 99  1  1  0  0  0
 45 46  1  0  0  0  0
 45 50  1  0  0  0  0
 45100  1  1  0  0  0
 46 47  1  0  0  0  0
 46 51  1  0  0  0  0
 46101  1  1  0  0  0
 47 52  1  0  0  0  0
 47102  1  0  0  0  0
 47103  1  0  0  0  0
 48104  1  0  0  0  0
 49105  1  0  0  0  0
 50106  1  0  0  0  0
 52107  1  0  0  0  0
A    1
C11
A    2
O11
A    3
C21
A    4
N21
A    5
C31
A    6
C41
A    7
O41
A    8
C51
A    9
O51
A   10
C61
A   11
O61
A   12
C12
A   13
N12
A   14
C62
A   15
O62
A   16
C52
A   17
O52
A   18
C42
A   19
C32
A   20
N32
A   21
C22
A   22
C13
A   23
C23
A   24
O23
A   25
C33
A   26
C43
A   27
O43
A   28
C53
A   29
O53
A   30
C44
A   31
O44
A   32
C34
A   33
O34
A   34
C24
A   35
N24
A   36
C14
A   37
O33
A   38
C54
A   39
O54
A   40
C64
A   41
N64
A   42
C15
A   43
C25
A   44
C35
A   45
C45
A   46
C55
A   47
C65
A   48
O25
A   49
O35
A   50
O45
A   51
O55
A   52
O65
M  END
>  <InstanceId>
2ESJ_LIV_A_50

>  <ChemCompId>
LIV

>  <PdbId>
2ESJ

>  <ChainId>
A

>  <ResidueNumber>
50

>  <InsertionCode>


>  <Model>
1

>  <AltIds>


>  <MissingHeavyAtoms>
0

>  <ObservedFormula>
C29 N5 O18

>  <Name>
(2R,3S,4S,5S,6R)-2-((2S,3S,4R,5R,6R)-5-AMINO-2-(AMINOMETHYL)-6-((2R,3S,4R,5S)-5-((1R,2R,3S,5R,6S)-3,5-DIAMINO-2-((2S,3R,5S,6R)-3-AMINO-5-HYDROXY-6-(HYDROXYMETHYL)-TETRAHYDRO-2H-PYRAN-2-YLOXY)-6-HYDROXYCYCLOHEXYLOXY)-4-HYDROXY-2-(HYDROXYMETHYL)-TETRAHYDROFURAN-3-YLOXY)-4-HYDROXY-TETRAHYDRO-2H-PYRAN-3-YLOXY)-6-(HYDROXYMETHYL)-TETRAHYDRO-2H-PYRAN-3,4,5-TRIOL

>  <SystematicName>
(2R,3S,4S,5S,6R)-2-[(2S,3S,4R,5R,6R)-5-amino-2-(aminomethyl)-6-[(2R,3S,4R,5S)-5-[(1R,2R,3S,5R,6S)-3,5-diamino-2-[(2S,3R,5S,6R)-3-amino-5-hydroxy-6-(hydroxymethyl)oxan-2-yl]oxy-6-hydroxy-cyclohexyl]oxy-4-hydroxy-2-(hydroxymethyl)oxolan-3-yl]oxy-4-hydroxy-oxan-3-yl]oxy-6-(hydroxymethyl)oxane-3,4,5-triol

>  <Synonyms>
LIVIDOMYCIN A; O-2-AMINO-2,3-DIDEOXY-ALPHA-D-GLUCOPYRANOSYL-(1,4)-O-[BETA-D-MANNOPYRANOSYL-(1,4)-O-2,6-DIAMINO-2,6-DIDEOXY-BETA-L-IDOPYRANOSYL-(1,3)-BETA-D-RIBOFURANOSYL-(1,5)-2-DEOXY-D-STREPTAMINE

>  <Type>
NON-POLYMER

>  <Formula>
C29 H55 N5 O18

>  <MolecularWeight>
761.77

>  <ModifiedDate>
2011-06-04

>  <Parent>


>  <OneLetterCode>


>  <SubcomponentList>


>  <AmbiguousFlag>
N

>  <InChI>
InChI=1S/C29H55N5O18/c30-3-11-23(51-28-20(43)19(42)17(40)13(5-36)47-28)18(41)15(34)27(45-11)50-24-14(6-37)48-29(21(24)44)52-25-16(39)7(31)1-8(32)22(25)49-26-9(33)2-10(38)12(4-35)46-26/h7-29,35-44H,1-6,30-34H2/t7-,8+,9-,10+,11+,12-,13-,14-,15-,16+,17-,18-,19+,20+,21-,22-,23-,24-,25-,26-,27-,28-,29+/m1/s1

>  <InChIKey>
DBLVDAUGBTYDFR-SWMBIRFSSA-N

>  <SMILES>
C1[C@H]([C@@H]([C@H]([C@@H]([C@H]1N)O[C@@H]2[C@@H](C[C@@H]([C@H](O2)CO)O)N)O[C@H]3[C@@H]([C@@H]([C@H](O3)CO)O[C@@H]4[C@@H]([C@H]([C@@H]([C@@H](O4)CN)O[C@@H]5[C@H]([C@H]([C@@H]([C@H](O5)CO)O)O)O)O)N)O)O)N

$$$$
