@<TRIPOS>MOLECULE
2ESJ_LIV_A_50
 52 56 0 0 0
SMALL
GASTEIGER
****
Coordinates from PDB:2ESJ:A:50 Model:1 without hydrogens
@<TRIPOS>ATOM
      1 C          17.1930   -6.5840   18.7250 C.3     1  UNL1        0.2535
      2 O          17.7050   -7.8930   19.0400 O.3     1  UNL1       -0.3278
      3 C          17.8890   -5.5670   19.6770 C.3     1  UNL1        0.1506
      4 N          19.3470   -5.6220   19.5750 N.3     1  UNL1       -0.1275
      5 C          17.4520   -5.8010   21.1580 C.3     1  UNL1        0.0597
      6 C          15.8970   -5.7610   21.2360 C.3     1  UNL1        0.1832
      7 O          15.4330   -5.8900   22.5680 O.3     1  UNL1       -0.2204
      8 C          15.3340   -6.8800   20.3250 C.3     1  UNL1        0.1808
      9 O          15.7660   -6.5890   18.9650 O.3     1  UNL1       -0.3266
     10 C          13.8440   -6.9060   20.2840 C.3     1  UNL1        0.2141
     11 O          13.4640   -7.9430   19.4120 O.3     1  UNL1       -0.2176
     12 C          19.4380  -11.1550   16.8850 C.3     1  UNL1        0.1261
     13 N          19.6790  -12.3050   15.9980 N.3     1  UNL1       -0.1301
     14 C          19.0940   -9.8750   16.0420 C.3     1  UNL1        0.1989
     15 O          20.2400   -9.5800   15.2000 O.3     1  UNL1       -0.2189
     16 C          18.8710   -8.6350   16.9720 C.3     1  UNL1        0.1779
     17 O          18.4970   -7.4390   16.2330 O.3     1  UNL1       -0.3258
     18 C          17.7870   -8.9400   18.0550 C.3     1  UNL1        0.1649
     19 C          18.0400  -10.2430   18.8570 C.3     1  UNL1        0.1230
     20 N          16.9280  -10.5000   19.7780 N.3     1  UNL1       -0.1302
     21 C          18.2450  -11.4650   17.8740 C.3     1  UNL1        0.0433
     22 C          19.5130   -6.6240   15.6920 C.3     1  UNL1        0.2694
     23 C          19.0030   -5.9040   14.4430 C.3     1  UNL1        0.2373
     24 O          19.1870   -6.6860   13.2430 O.3     1  UNL1       -0.2150
     25 C          19.8270   -4.6500   14.4940 C.3     1  UNL1        0.1827
     26 C          19.9840   -4.3080   15.9900 C.3     1  UNL1        0.1804
     27 O          19.9400   -5.5920   16.5920 O.3     1  UNL1       -0.3257
     28 C          18.8990   -3.4240   16.6040 C.3     1  UNL1        0.2141
     29 O          19.4650   -2.7820   17.7560 O.3     1  UNL1       -0.2176
     30 C          24.7630   -2.7350   13.0670 C.3     1  UNL1        0.1782
     31 O          25.5740   -3.7590   13.6450 O.3     1  UNL1       -0.3258
     32 C          23.9260   -3.4840   11.9500 C.3     1  UNL1        0.2038
     33 O          23.1230   -2.4780   11.3240 O.3     1  UNL1       -0.2187
     34 C          22.9680   -4.5870   12.5830 C.3     1  UNL1        0.1806
     35 N          23.6630   -5.6700   13.3280 N.3     1  UNL1       -0.1248
     36 C          21.8830   -3.8650   13.5010 C.3     1  UNL1        0.2561
     37 O          21.1400   -4.9060   14.0640 O.3     1  UNL1       -0.3265
     38 C          23.7630   -2.3520   14.1410 C.3     1  UNL1        0.1664
     39 O          22.5580   -3.0230   14.5680 O.3     1  UNL1       -0.3277
     40 C          24.3110   -1.5000   15.3270 C.3     1  UNL1        0.1414
     41 N          23.7780   -1.9140   16.6420 N.3     1  UNL1       -0.1286
     42 C          27.2260   -3.6090   13.7990 C.3     1  UNL1        0.2695
     43 C          27.3290   -4.5560   14.9890 C.3     1  UNL1        0.2406
     44 C          27.1810   -3.9010   16.3570 C.3     1  UNL1        0.2198
     45 C          28.0530   -2.6580   16.5430 C.3     1  UNL1        0.2144
     46 C          28.0610   -1.7880   15.2910 C.3     1  UNL1        0.1835
     47 C          28.8550   -0.4880   15.1850 C.3     1  UNL1        0.2142
     48 O          28.6050   -5.2260   14.9520 O.3     1  UNL1       -0.2149
     49 O          27.5380   -4.8820   17.3370 O.3     1  UNL1       -0.2174
     50 O          27.5800   -1.9900   17.7240 O.3     1  UNL1       -0.2176
     51 O          27.9430   -2.3640   13.9810 O.3     1  UNL1       -0.3256
     52 O          30.2650   -0.7820   15.0000 O.3     1  UNL1       -0.2176
@<TRIPOS>BOND
     1     1     2    1
     2     1     3    1
     3     1     9    1
     4     3     4    1
     5     3     5    1
     6     5     6    1
     7     6     7    1
     8     6     8    1
     9     8     9    1
    10     8    10    1
    11    10    11    1
    12    12    13    1
    13    12    14    1
    14    12    21    1
    15    14    15    1
    16    14    16    1
    17    16    17    1
    18    16    18    1
    19    18     2    1
    20    18    19    1
    21    19    20    1
    22    19    21    1
    23    22    17    1
    24    22    23    1
    25    22    27    1
    26    23    24    1
    27    23    25    1
    28    25    26    1
    29    25    37    1
    30    26    27    1
    31    26    28    1
    32    28    29    1
    33    30    31    1
    34    30    32    1
    35    30    38    1
    36    32    33    1
    37    32    34    1
    38    34    35    1
    39    34    36    1
    40    36    37    1
    41    36    39    1
    42    38    39    1
    43    38    40    1
    44    40    41    1
    45    42    31    1
    46    42    43    1
    47    42    51    1
    48    43    44    1
    49    43    48    1
    50    44    45    1
    51    44    49    1
    52    45    46    1
    53    45    50    1
    54    46    47    1
    55    46    51    1
    56    47    52    1
