2ESJ_LIV_A_50
 OpenBabel10091713573D
Coordinates from PDB:2ESJ:A:50 Model:1 without hydrogens
107111  0  0  1  0  0  0  0  0999 V2000
   17.1930   -6.5840   18.7250 C   0  0  2  0  0  0  0  0  0  0  0  0
   17.7050   -7.8930   19.0400 O   0  0  0  0  0  0  0  0  0  0  0  0
   17.8890   -5.5670   19.6770 C   0  0  2  0  0  0  0  0  0  0  0  0
   19.3470   -5.6220   19.5750 N   0  0  0  0  0  0  0  0  0  0  0  0
   17.4520   -5.8010   21.1580 C   0  0  0  0  0  0  0  0  0  0  0  0
   15.8970   -5.7610   21.2360 C   0  0  2  0  0  0  0  0  0  0  0  0
   15.4330   -5.8900   22.5680 O   0  0  0  0  0  0  0  0  0  0  0  0
   15.3340   -6.8800   20.3250 C   0  0  2  0  0  0  0  0  0  0  0  0
   15.7660   -6.5890   18.9650 O   0  0  0  0  0  0  0  0  0  0  0  0
   13.8440   -6.9060   20.2840 C   0  0  0  0  0  0  0  0  0  0  0  0
   13.4640   -7.9430   19.4120 O   0  0  0  0  0  0  0  0  0  0  0  0
   19.4380  -11.1550   16.8850 C   0  0  1  0  0  0  0  0  0  0  0  0
   19.6790  -12.3050   15.9980 N   0  0  0  0  0  0  0  0  0  0  0  0
   19.0940   -9.8750   16.0420 C   0  0  2  0  0  0  0  0  0  0  0  0
   20.2400   -9.5800   15.2000 O   0  0  0  0  0  0  0  0  0  0  0  0
   18.8710   -8.6350   16.9720 C   0  0  1  0  0  0  0  0  0  0  0  0
   18.4970   -7.4390   16.2330 O   0  0  0  0  0  0  0  0  0  0  0  0
   17.7870   -8.9400   18.0550 C   0  0  1  0  0  0  0  0  0  0  0  0
   18.0400  -10.2430   18.8570 C   0  0  1  0  0  0  0  0  0  0  0  0
   16.9280  -10.5000   19.7780 N   0  0  0  0  0  0  0  0  0  0  0  0
   18.2450  -11.4650   17.8740 C   0  0  0  0  0  0  0  0  0  0  0  0
   19.5130   -6.6240   15.6920 C   0  0  1  0  0  0  0  0  0  0  0  0
   19.0030   -5.9040   14.4430 C   0  0  2  0  0  0  0  0  0  0  0  0
   19.1870   -6.6860   13.2430 O   0  0  0  0  0  0  0  0  0  0  0  0
   19.8270   -4.6500   14.4940 C   0  0  1  0  0  0  0  0  0  0  0  0
   19.9840   -4.3080   15.9900 C   0  0  2  0  0  0  0  0  0  0  0  0
   19.9400   -5.5920   16.5920 O   0  0  0  0  0  0  0  0  0  0  0  0
   18.8990   -3.4240   16.6040 C   0  0  0  0  0  0  0  0  0  0  0  0
   19.4650   -2.7820   17.7560 O   0  0  0  0  0  0  0  0  0  0  0  0
   24.7630   -2.7350   13.0670 C   0  0  1  0  0  0  0  0  0  0  0  0
   25.5740   -3.7590   13.6450 O   0  0  0  0  0  0  0  0  0  0  0  0
   23.9260   -3.4840   11.9500 C   0  0  2  0  0  0  0  0  0  0  0  0
   23.1230   -2.4780   11.3240 O   0  0  0  0  0  0  0  0  0  0  0  0
   22.9680   -4.5870   12.5830 C   0  0  1  0  0  0  0  0  0  0  0  0
   23.6630   -5.6700   13.3280 N   0  0  0  0  0  0  0  0  0  0  0  0
   21.8830   -3.8650   13.5010 C   0  0  1  0  0  0  0  0  0  0  0  0
   21.1400   -4.9060   14.0640 O   0  0  0  0  0  0  0  0  0  0  0  0
   23.7630   -2.3520   14.1410 C   0  0  1  0  0  0  0  0  0  0  0  0
   22.5580   -3.0230   14.5680 O   0  0  0  0  0  0  0  0  0  0  0  0
   24.3110   -1.5000   15.3270 C   0  0  0  0  0  0  0  0  0  0  0  0
   23.7780   -1.9140   16.6420 N   0  0  0  0  0  0  0  0  0  0  0  0
   27.2260   -3.6090   13.7990 C   0  0  2  0  0  0  0  0  0  0  0  0
   27.3290   -4.5560   14.9890 C   0  0  2  0  0  0  0  0  0  0  0  0
   27.1810   -3.9010   16.3570 C   0  0  2  0  0  0  0  0  0  0  0  0
   28.0530   -2.6580   16.5430 C   0  0  1  0  0  0  0  0  0  0  0  0
   28.0610   -1.7880   15.2910 C   0  0  1  0  0  0  0  0  0  0  0  0
   28.8550   -0.4880   15.1850 C   0  0  0  0  0  0  0  0  0  0  0  0
   28.6050   -5.2260   14.9520 O   0  0  0  0  0  0  0  0  0  0  0  0
   27.5380   -4.8820   17.3370 O   0  0  0  0  0  0  0  0  0  0  0  0
   27.5800   -1.9900   17.7240 O   0  0  0  0  0  0  0  0  0  0  0  0
   27.9430   -2.3640   13.9810 O   0  0  0  0  0  0  0  0  0  0  0  0
   30.2650   -0.7820   15.0000 O   0  0  0  0  0  0  0  0  0  0  0  0
   17.3811   -6.3187   17.7056 H   0  0  0  0  0  0  0  0  0  0  0  0
   17.5757   -4.5920   19.3670 H   0  0  0  0  0  0  0  0  0  0  0  0
   19.6736   -6.5436   19.8655 H   0  0  0  0  0  0  0  0  0  0  0  0
   19.7572   -4.9099   20.1792 H   0  0  0  0  0  0  0  0  0  0  0  0
   17.8629   -5.0331   21.7796 H   0  0  0  0  0  0  0  0  0  0  0  0
   17.8081   -6.7518   21.4957 H   0  0  0  0  0  0  0  0  0  0  0  0
   15.5484   -4.8092   20.8933 H   0  0  0  0  0  0  0  0  0  0  0  0
   15.7229   -6.7418   22.9303 H   0  0  0  0  0  0  0  0  0  0  0  0
   15.6845   -7.8146   20.7105 H   0  0  0  0  0  0  0  0  0  0  0  0
   13.4719   -5.9700   19.9229 H   0  0  0  0  0  0  0  0  0  0  0  0
   13.4424   -7.0694   21.2622 H   0  0  0  0  0  0  0  0  0  0  0  0
   13.8366   -7.7781   18.5317 H   0  0  0  0  0  0  0  0  0  0  0  0
   20.3291  -10.9763   17.4497 H   0  0  0  0  0  0  0  0  0  0  0  0
   18.8399  -12.4929   15.4493 H   0  0  0  0  0  0  0  0  0  0  0  0
   19.9089  -13.1250   16.5593 H   0  0  0  0  0  0  0  0  0  0  0  0
   18.2048  -10.0600   15.4762 H   0  0  0  0  0  0  0  0  0  0  0  0
   21.0179   -9.4204   15.7570 H   0  0  0  0  0  0  0  0  0  0  0  0
   19.8105   -8.4433   17.4469 H   0  0  0  0  0  0  0  0  0  0  0  0
   16.8871   -9.0324   17.4835 H   0  0  0  0  0  0  0  0  0  0  0  0
   18.9334  -10.1215   19.4332 H   0  0  0  0  0  0  0  0  0  0  0  0
   16.0661  -10.6187   19.2456 H   0  0  0  0  0  0  0  0  0  0  0  0
   16.8269   -9.7117   20.4173 H   0  0  0  0  0  0  0  0  0  0  0  0
   18.4714  -12.3439   18.4407 H   0  0  0  0  0  0  0  0  0  0  0  0
   17.3487  -11.6228   17.3113 H   0  0  0  0  0  0  0  0  0  0  0  0
   20.3284   -7.2844   15.4825 H   0  0  0  0  0  0  0  0  0  0  0  0
   17.9493   -5.7192   14.4224 H   0  0  0  0  0  0  0  0  0  0  0  0
   20.1238   -6.9197   13.1499 H   0  0  0  0  0  0  0  0  0  0  0  0
   19.3638   -3.8937   13.8954 H   0  0  0  0  0  0  0  0  0  0  0  0
   20.8719   -3.7304   16.1414 H   0  0  0  0  0  0  0  0  0  0  0  0
   18.0612   -4.0228   16.8945 H   0  0  0  0  0  0  0  0  0  0  0  0
   18.5606   -2.6966   15.8959 H   0  0  0  0  0  0  0  0  0  0  0  0
   19.7659   -3.4552   18.3862 H   0  0  0  0  0  0  0  0  0  0  0  0
   25.3180   -1.8961   12.7021 H   0  0  0  0  0  0  0  0  0  0  0  0
   24.5796   -3.9816   11.2644 H   0  0  0  0  0  0  0  0  0  0  0  0
   22.5520   -2.0607   11.9878 H   0  0  0  0  0  0  0  0  0  0  0  0
   22.4993   -5.0905   11.7634 H   0  0  0  0  0  0  0  0  0  0  0  0
   24.1425   -5.2732   14.1361 H   0  0  0  0  0  0  0  0  0  0  0  0
   24.3435   -6.1208   12.7164 H   0  0  0  0  0  0  0  0  0  0  0  0
   21.2622   -3.1926   12.9467 H   0  0  0  0  0  0  0  0  0  0  0  0
   23.3205   -1.9223   13.2667 H   0  0  0  0  0  0  0  0  0  0  0  0
   24.0462   -0.4768   15.1605 H   0  0  0  0  0  0  0  0  0  0  0  0
   25.3709   -1.6436   15.3561 H   0  0  0  0  0  0  0  0  0  0  0  0
   22.7655   -1.7909   16.6525 H   0  0  0  0  0  0  0  0  0  0  0  0
   24.1978   -1.3416   17.3745 H   0  0  0  0  0  0  0  0  0  0  0  0
   27.7185   -3.7794   12.8645 H   0  0  0  0  0  0  0  0  0  0  0  0
   26.5031   -5.2282   14.8843 H   0  0  0  0  0  0  0  0  0  0  0  0
   26.1694   -3.5673   16.4582 H   0  0  0  0  0  0  0  0  0  0  0  0
   29.0824   -2.9147   16.6822 H   0  0  0  0  0  0  0  0  0  0  0  0
   27.0904   -1.5178   15.6513 H   0  0  0  0  0  0  0  0  0  0  0  0
   28.7261    0.0803   16.0824 H   0  0  0  0  0  0  0  0  0  0  0  0
   28.4999    0.0735   14.3463 H   0  0  0  0  0  0  0  0  0  0  0  0
   29.3158   -4.5734   15.0507 H   0  0  0  0  0  0  0  0  0  0  0  0
   28.4603   -5.1514   17.2038 H   0  0  0  0  0  0  0  0  0  0  0  0
   26.6466   -1.7522   17.6091 H   0  0  0  0  0  0  0  0  0  0  0  0
   30.5913   -1.2912   15.7584 H   0  0  0  0  0  0  0  0  0  0  0  0
  1  2  1  0  0  0  0
  1  3  1  0  0  0  0
  1  9  1  0  0  0  0
  1 53  1  6  0  0  0
  2 18  1  0  0  0  0
  3  4  1  0  0  0  0
  3  5  1  0  0  0  0
  3 54  1  6  0  0  0
  4 55  1  0  0  0  0
  4 56  1  0  0  0  0
  5  6  1  0  0  0  0
  5 57  1  0  0  0  0
  5 58  1  0  0  0  0
  6  7  1  0  0  0  0
  6  8  1  0  0  0  0
  6 59  1  6  0  0  0
  7 60  1  0  0  0  0
  8  9  1  0  0  0  0
  8 10  1  0  0  0  0
  8 61  1  1  0  0  0
 10 11  1  0  0  0  0
 10 62  1  0  0  0  0
 10 63  1  0  0  0  0
 11 64  1  0  0  0  0
 12 13  1  0  0  0  0
 12 14  1  0  0  0  0
 12 21  1  0  0  0  0
 12 65  1  1  0  0  0
 13 66  1  0  0  0  0
 13 67  1  0  0  0  0
 14 15  1  0  0  0  0
 14 16  1  0  0  0  0
 14 68  1  6  0  0  0
 15 69  1  0  0  0  0
 16 17  1  0  0  0  0
 16 18  1  0  0  0  0
 16 70  1  1  0  0  0
 17 22  1  0  0  0  0
 18 19  1  0  0  0  0
 18 71  1  6  0  0  0
 19 20  1  0  0  0  0
 19 21  1  0  0  0  0
 19 72  1  1  0  0  0
 20 73  1  0  0  0  0
 20 74  1  0  0  0  0
 21 75  1  0  0  0  0
 21 76  1  0  0  0  0
 22 23  1  0  0  0  0
 22 27  1  0  0  0  0
 22 77  1  6  0  0  0
 23 24  1  0  0  0  0
 23 25  1  0  0  0  0
 23 78  1  1  0  0  0
 24 79  1  0  0  0  0
 25 26  1  0  0  0  0
 25 37  1  0  0  0  0
 25 80  1  6  0  0  0
 26 27  1  0  0  0  0
 26 28  1  0  0  0  0
 26 81  1  1  0  0  0
 28 29  1  0  0  0  0
 28 82  1  0  0  0  0
 28 83  1  0  0  0  0
 29 84  1  0  0  0  0
 30 31  1  0  0  0  0
 30 32  1  0  0  0  0
 30 38  1  0  0  0  0
 30 85  1  6  0  0  0
 31 42  1  0  0  0  0
 32 33  1  0  0  0  0
 32 34  1  0  0  0  0
 32 86  1  6  0  0  0
 33 87  1  0  0  0  0
 34 35  1  0  0  0  0
 34 36  1  0  0  0  0
 34 88  1  6  0  0  0
 35 89  1  0  0  0  0
 35 90  1  0  0  0  0
 36 37  1  0  0  0  0
 36 39  1  0  0  0  0
 36 91  1  6  0  0  0
 38 39  1  0  0  0  0
 38 40  1  0  0  0  0
 38 92  1  6  0  0  0
 40 41  1  0  0  0  0
 40 93  1  0  0  0  0
 40 94  1  0  0  0  0
 41 95  1  0  0  0  0
 41 96  1  0  0  0  0
 42 43  1  0  0  0  0
 42 51  1  0  0  0  0
 42 97  1  6  0  0  0
 43 44  1  0  0  0  0
 43 48  1  0  0  0  0
 43 98  1  6  0  0  0
 44 45  1  0  0  0  0
 44 49  1  0  0  0  0
 44 99  1  1  0  0  0
 45 46  1  0  0  0  0
 45 50  1  0  0  0  0
 45100  1  1  0  0  0
 46 47  1  0  0  0  0
 46 51  1  0  0  0  0
 46101  1  1  0  0  0
 47 52  1  0  0  0  0
 47102  1  0  0  0  0
 47103  1  0  0  0  0
 48104  1  0  0  0  0
 49105  1  0  0  0  0
 50106  1  0  0  0  0
 52107  1  0  0  0  0
M  END
$$$$
