REMARK  16 active torsions:
REMARK  status: ('A' for Active; 'I' for Inactive)
REMARK    1  A    between atoms: O_27  and  C_1 
REMARK    2  A    between atoms: N_26  and  C_2 
REMARK    3  A    between atoms: O_24  and  C_6 
REMARK    4  A    between atoms: N_22  and  C_7 
REMARK    5  A    between atoms: O_10  and  C_8 
REMARK    6  A    between atoms: C_11  and  O_10 
REMARK    7  A    between atoms: O_21  and  C_12 
REMARK    8  A    between atoms: O_20  and  C_13 
REMARK    9  A    between atoms: N_19  and  C_14 
REMARK   10  A    between atoms: C_16  and  C_15 
REMARK   11  A    between atoms: O_17  and  C_16 
REMARK   12  A    between atoms: C_28  and  O_27 
REMARK   13  A    between atoms: O_37  and  C_29 
REMARK   14  A    between atoms: O_36  and  C_30 
REMARK   15  A    between atoms: N_35  and  C_31 
REMARK   16  A    between atoms: N_34  and  C_33 
ROOT
ATOM      1  C   UNL d   1      -1.608   6.822   1.405  0.00  0.00     0.293 C 
ATOM      2  C   UNL d   1      -3.100   6.425   1.588  0.00  0.00     0.275 C 
ATOM      3  C   UNL d   1      -3.642   5.243   0.758  0.00  0.00     0.075 C 
ATOM      4  C   UNL d   1      -2.639   4.514  -0.129  0.00  0.00     0.158 C 
ATOM      5  C   UNL d   1      -1.227   4.674   0.400  0.00  0.00     0.184 C 
ATOM      6  C   UNL d   1      -0.276   3.968  -0.556  0.00  0.00     0.187 C 
ATOM      7  C   UNL d   1      -0.604   2.476  -0.638  0.00  0.00     0.305 C 
ATOM      8  C   UNL d   1      -2.107   2.119  -0.439  0.00  0.00     0.299 C 
ATOM      9  O   UNL d   1      -3.063   3.161  -0.251  0.00  0.00    -0.351 OA
ATOM     10  O   UNL d   1      -0.925   6.065   0.397  0.00  0.00    -0.349 OA
ENDROOT
BRANCH   1  11
ATOM     11  O   UNL d   1      -0.851   6.793   2.618  0.00  0.00    -0.349 OA
BRANCH  11  12
ATOM     12  C   UNL d   1      -0.871   7.881   3.568  0.00  0.00     0.189 C 
ATOM     13  C   UNL d   1       0.586   7.958   4.085  0.00  0.00     0.180 C 
ATOM     14  C   UNL d   1       0.904   9.272   4.780  0.00  0.00     0.182 C 
ATOM     15  C   UNL d   1       0.822  10.444   3.783  0.00  0.00     0.251 C 
ATOM     16  C   UNL d   1      -0.250  10.209   2.693  0.00  0.00     0.076 C 
ATOM     17  C   UNL d   1      -1.395   9.274   3.114  0.00  0.00     0.251 C 
BRANCH  13  18
ATOM     18  O   UNL d   1       0.792   6.880   4.994  0.00  0.00    -0.390 OA
ATOM     19  H   UNL d   1       0.886   6.072   4.460  0.00  0.00     0.210 HD
ENDBRANCH  13  18
BRANCH  14  20
ATOM     20  O   UNL d   1       2.239   9.212   5.295  0.00  0.00    -0.391 OA
ATOM     21  H   UNL d   1       2.290   9.834   6.037  0.00  0.00     0.210 HD
ENDBRANCH  14  20
BRANCH  15  22
ATOM     22  N   UNL d   1       0.581  11.715   4.479  0.00  0.00     0.085 N 
ATOM     23  H   UNL d   1      -0.058  11.582   5.261  0.00  0.00     0.313 HD
ATOM     24  H   UNL d   1       1.458  12.041   4.885  0.00  0.00     0.313 HD
ENDBRANCH  15  22
BRANCH  17  25
ATOM     25  N   UNL d   1      -2.223   9.914   4.150  0.00  0.00     0.085 N 
ATOM     26  H   UNL d   1      -3.123   9.437   4.213  0.00  0.00     0.313 HD
ATOM     27  H   UNL d   1      -1.792   9.818   5.066  0.00  0.00     0.313 HD
ENDBRANCH  17  25
ENDBRANCH  11  12
ENDBRANCH   1  11
BRANCH   2  28
ATOM     28  N   UNL d   1      -3.437   6.198   3.001  0.00  0.00     0.087 N 
ATOM     29  H   UNL d   1      -2.826   5.473   3.377  0.00  0.00     0.313 HD
ATOM     30  H   UNL d   1      -4.388   5.853   3.092  0.00  0.00     0.313 HD
ENDBRANCH   2  28
BRANCH   6  31
ATOM     31  O   UNL d   1      -0.368   4.588  -1.845  0.00  0.00    -0.391 OA
ATOM     32  H   UNL d   1       0.289   5.304  -1.868  0.00  0.00     0.210 HD
ENDBRANCH   6  31
BRANCH   7  33
ATOM     33  N   UNL d   1      -0.071   1.931  -1.902  0.00  0.00     0.091 N 
ATOM     34  C   UNL d   1       0.493   0.600  -1.748  0.00  0.00     0.307 C 
ATOM     35  H   UNL d   1      -0.791   1.934  -2.625  0.00  0.00     0.316 HD
ENDBRANCH   7  33
BRANCH   8  36
ATOM     36  O   UNL d   1      -2.204   1.084   0.570  0.00  0.00    -0.327 OA
BRANCH  36  37
ATOM     37  C   UNL d   1      -2.403   1.530   1.915  0.00  0.00     0.294 C 
ATOM     38  C   UNL d   1      -1.203   1.109   2.775  0.00  0.00     0.204 C 
ATOM     39  C   UNL d   1      -1.406   1.475   4.249  0.00  0.00     0.187 C 
ATOM     40  C   UNL d   1      -2.766   2.147   4.499  0.00  0.00     0.279 C 
ATOM     41  C   UNL d   1      -3.908   1.368   3.803  0.00  0.00     0.183 C 
ATOM     42  O   UNL d   1      -3.586   0.942   2.463  0.00  0.00    -0.349 OA
BRANCH  38  43
ATOM     43  O   UNL d   1      -1.056  -0.312   2.679  0.00  0.00    -0.388 OA
ATOM     44  H   UNL d   1      -0.110  -0.513   2.794  0.00  0.00     0.210 HD
ENDBRANCH  38  43
BRANCH  39  45
ATOM     45  O   UNL d   1      -0.390   2.426   4.601  0.00  0.00    -0.391 OA
ATOM     46  H   UNL d   1      -0.259   2.356   5.562  0.00  0.00     0.210 HD
ENDBRANCH  39  45
BRANCH  40  47
ATOM     47  N   UNL d   1      -3.011   2.192   5.943  0.00  0.00     0.088 N 
ATOM     48  H   UNL d   1      -3.850   2.743   6.135  0.00  0.00     0.313 HD
ATOM     49  H   UNL d   1      -2.248   2.691   6.399  0.00  0.00     0.313 HD
ENDBRANCH  40  47
BRANCH  41  50
ATOM     50  C   UNL d   1      -5.259   2.095   3.718  0.00  0.00     0.198 C 
BRANCH  50  51
ATOM     51  O   UNL d   1      -5.370   3.172   4.635  0.00  0.00    -0.398 OA
ATOM     52  H   UNL d   1      -6.067   2.954   5.276  0.00  0.00     0.209 HD
ENDBRANCH  50  51
ENDBRANCH  41  50
ENDBRANCH  36  37
ENDBRANCH   8  36
TORSDOF 16
