@<TRIPOS>MOLECULE
2G5K_AM2_A_102
 78 81 0 0 0
SMALL
GASTEIGER

@<TRIPOS>ATOM
      1 C          -1.6077    6.8225    1.4054 C.3     1  UNL1        0.1752
      2 H          -1.5646    7.8297    0.9882 H       1  UNL1        0.0926
      3 C          -3.1005    6.4251    1.5882 C.3     1  UNL1        0.0590
      4 H          -3.6935    7.3008    1.2919 H       1  UNL1        0.0509
      5 C          -3.6418    5.2428    0.7582 C.3     1  UNL1       -0.0040
      6 C          -2.6390    4.5138   -0.1294 C.3     1  UNL1        0.0920
      7 H          -2.7121    4.9443   -1.1372 H       1  UNL1        0.0624
      8 C          -1.2271    4.6743    0.3999 C.3     1  UNL1        0.1153
      9 H          -1.1037    4.2636    1.4079 H       1  UNL1        0.0649
     10 C          -0.2758    3.9678   -0.5565 C.3     1  UNL1        0.1038
     11 H           0.7628    4.1016   -0.2240 H       1  UNL1        0.0637
     12 C          -0.6037    2.4759   -0.6380 C.3     1  UNL1        0.0877
     13 H          -0.0470    2.0179    0.1869 H       1  UNL1        0.0537
     14 C          -2.1068    2.1191   -0.4389 C.3     1  UNL1        0.1803
     15 H          -2.4630    1.6094   -1.3402 H       1  UNL1        0.0928
     16 O          -3.0629    3.1606   -0.2514 O.3     1  UNL1       -0.3436
     17 O          -2.2043    1.0843    0.5698 O.3     1  UNL1       -0.3184
     18 C          -2.4033    1.5299    1.9152 C.3     1  UNL1        0.1908
     19 H          -2.5160    2.6163    1.9516 H       1  UNL1        0.0938
     20 C          -1.2033    1.1085    2.7752 C.3     1  UNL1        0.1332
     21 H          -0.2811    1.5439    2.3804 H       1  UNL1        0.0671
     22 C          -1.4059    1.4746    4.2491 C.3     1  UNL1        0.1033
     23 H          -1.2658    0.5974    4.8948 H       1  UNL1        0.0637
     24 C          -2.7664    2.1465    4.4994 C.3     1  UNL1        0.0626
     25 H          -2.7338    3.1806    4.1230 H       1  UNL1        0.0511
     26 C          -3.9079    1.3681    3.8033 C.3     1  UNL1        0.1023
     27 H          -4.0728    0.4318    4.3536 H       1  UNL1        0.0636
     28 C          -5.2589    2.0952    3.7180 C.3     1  UNL1        0.0720
     29 O          -5.3703    3.1724    4.6354 O.3     1  UNL1       -0.3924
     30 O          -3.5859    0.9423    2.4630 O.3     1  UNL1       -0.3415
     31 N          -3.0114    2.1925    5.9428 N.3     1  UNL1       -0.3230
     32 O          -0.3902    2.4257    4.6012 O.3     1  UNL1       -0.3874
     33 O          -1.0558   -0.3117    2.6795 O.3     1  UNL1       -0.3841
     34 N          -0.0714    1.9313   -1.9023 N.3     1  UNL1       -0.3099
     35 C           0.4932    0.6001   -1.7479 C.3     1  UNL1       -0.0153
     36 O          -0.3684    4.5880   -1.8451 O.3     1  UNL1       -0.3874
     37 O          -0.9252    6.0648    0.3968 O.3     1  UNL1       -0.3413
     38 N          -3.4370    6.1982    3.0008 N.3     1  UNL1       -0.3231
     39 O          -0.8514    6.7934    2.6181 O.3     1  UNL1       -0.3423
     40 C          -0.8708    7.8812    3.5681 C.3     1  UNL1        0.1051
     41 H          -1.4951    7.5242    4.4006 H       1  UNL1        0.0639
     42 C           0.5856    7.9576    4.0853 C.3     1  UNL1        0.1101
     43 H           1.2902    7.8112    3.2538 H       1  UNL1        0.0646
     44 C           0.9036    9.2724    4.7802 C.3     1  UNL1        0.0986
     45 H           0.2458    9.4158    5.6463 H       1  UNL1        0.0635
     46 C           0.8223   10.4440    3.7832 C.3     1  UNL1        0.0351
     47 H           1.7872   10.5644    3.2726 H       1  UNL1        0.0485
     48 C          -0.2498   10.2090    2.6932 C.3     1  UNL1       -0.0175
     49 C          -1.3954    9.2744    3.1140 C.3     1  UNL1        0.0355
     50 H          -2.0838    9.1755    2.2733 H       1  UNL1        0.0485
     51 N          -2.2233    9.9136    4.1496 N.3     1  UNL1       -0.3250
     52 N           0.5806   11.7152    4.4792 N.3     1  UNL1       -0.3250
     53 O           2.2387    9.2121    5.2950 O.3     1  UNL1       -0.3876
     54 O           0.7924    6.8800    4.9937 O.3     1  UNL1       -0.3866
     55 H          -4.4548    5.6157    0.1158 H       1  UNL1        0.0308
     56 H          -4.1428    4.5093    1.4059 H       1  UNL1        0.0308
     57 H          -5.4092    2.5146    2.7182 H       1  UNL1        0.0583
     58 H          -6.0707    1.3833    3.9019 H       1  UNL1        0.0583
     59 H          -6.0674    2.9537    5.2757 H       1  UNL1        0.2095
     60 H          -3.8500    2.7427    6.1348 H       1  UNL1        0.1186
     61 H          -2.2484    2.6913    6.3992 H       1  UNL1        0.1186
     62 H          -0.2593    2.3561    5.5625 H       1  UNL1        0.2100
     63 H          -0.1101   -0.5127    2.7944 H       1  UNL1        0.2101
     64 H          -0.7906    1.9340   -2.6254 H       1  UNL1        0.1221
     65 H          -0.2337   -0.1070   -1.3367 H       1  UNL1        0.0388
     66 H           1.3719    0.6269   -1.0964 H       1  UNL1        0.0388
     67 H           0.8162    0.2252   -2.7231 H       1  UNL1        0.0388
     68 H           0.2892    5.3041   -1.8681 H       1  UNL1        0.2100
     69 H          -2.8262    5.4725    3.3773 H       1  UNL1        0.1186
     70 H          -4.3884    5.8534    3.0918 H       1  UNL1        0.1186
     71 H          -0.6428   11.1612    2.3191 H       1  UNL1        0.0297
     72 H           0.2447    9.7471    1.8256 H       1  UNL1        0.0297
     73 H          -3.1228    9.4372    4.2134 H       1  UNL1        0.1185
     74 H          -1.7917    9.8176    5.0661 H       1  UNL1        0.1185
     75 H          -0.0582   11.5824    5.2607 H       1  UNL1        0.1185
     76 H           1.4579   12.0414    4.8848 H       1  UNL1        0.1185
     77 H           2.2901    9.8339    6.0373 H       1  UNL1        0.2100
     78 H           0.8856    6.0720    4.4599 H       1  UNL1        0.2100
@<TRIPOS>BOND
     1     1     2    1
     2     3     1    1
     3     3     4    1
     4     5     3    1
     5     6     5    1
     6     6     7    1
     7     8     6    1
     8     8     9    1
     9    10     8    1
    10    10    11    1
    11    12    10    1
    12    12    13    1
    13    14    12    1
    14    14    15    1
    15    16    14    1
    16    16     6    1
    17    17    14    1
    18    18    17    1
    19    18    19    1
    20    20    18    1
    21    20    21    1
    22    22    20    1
    23    22    23    1
    24    24    22    1
    25    24    25    1
    26    26    24    1
    27    26    27    1
    28    28    26    1
    29    29    28    1
    30    30    26    1
    31    30    18    1
    32    31    24    1
    33    32    22    1
    34    33    20    1
    35    34    12    1
    36    35    34    1
    37    36    10    1
    38    37     8    1
    39    37     1    1
    40    38     3    1
    41    39     1    1
    42    40    39    1
    43    40    41    1
    44    42    40    1
    45    42    43    1
    46    44    42    1
    47    44    45    1
    48    46    44    1
    49    46    47    1
    50    48    46    1
    51    49    48    1
    52    49    50    1
    53    49    40    1
    54    51    49    1
    55    52    46    1
    56    53    44    1
    57    54    42    1
    58     5    55    1
    59     5    56    1
    60    28    57    1
    61    28    58    1
    62    29    59    1
    63    31    60    1
    64    31    61    1
    65    32    62    1
    66    33    63    1
    67    34    64    1
    68    35    65    1
    69    35    66    1
    70    35    67    1
    71    36    68    1
    72    38    69    1
    73    38    70    1
    74    48    71    1
    75    48    72    1
    76    51    73    1
    77    51    74    1
    78    52    75    1
    79    52    76    1
    80    53    77    1
    81    54    78    1
