2OE8_AM2_B_101
  1228              3D

 78 81  0  0  0  0  0  0  0  0999 V2000
    1.2838    4.0781   -2.3315 C   0  0  0  0  0  0  0  0  0  0  0  0
    0.9137    4.9561   -2.8698 H   0  0  0  0  0  0  0  0  0  0  0  0
    0.5320    2.8341   -2.9139 C   0  0  0  0  0  0  0  0  0  0  0  0
    0.8190    2.7691   -3.9870 H   0  0  0  0  0  0  0  0  0  0  0  0
    1.0344    1.5794   -2.2073 C   0  0  0  0  0  0  0  0  0  0  0  0
    2.5293    1.4638   -2.5104 C   0  0  0  0  0  0  0  0  0  0  0  0
    2.5940    1.2391   -3.5862 H   0  0  0  0  0  0  0  0  0  0  0  0
    3.2769    2.7542   -2.1590 C   0  0  0  0  0  0  0  0  0  0  0  0
    3.4050    2.8423   -1.0734 H   0  0  0  0  0  0  0  0  0  0  0  0
    4.6609    2.6243   -2.8152 C   0  0  0  0  0  0  0  0  0  0  0  0
    5.2823    3.4921   -2.5638 H   0  0  0  0  0  0  0  0  0  0  0  0
    5.3710    1.3169   -2.3585 C   0  0  0  0  0  0  0  0  0  0  0  0
    5.6116    1.4995   -1.3020 H   0  0  0  0  0  0  0  0  0  0  0  0
    4.4150    0.0591   -2.3165 C   0  0  0  0  0  0  0  0  0  0  0  0
    4.2901   -0.3640   -3.3209 H   0  0  0  0  0  0  0  0  0  0  0  0
    3.1273    0.3978   -1.7801 O   0  0  0  0  0  0  0  0  0  0  0  0
    5.0438   -0.9301   -1.4740 O   0  0  0  0  0  0  0  0  0  0  0  0
    4.2035   -2.0630   -1.2169 C   0  0  0  0  0  0  0  0  0  0  0  0
    3.2417   -1.7198   -0.8240 H   0  0  0  0  0  0  0  0  0  0  0  0
    4.8849   -2.9392   -0.1284 C   0  0  0  0  0  0  0  0  0  0  0  0
    4.9342   -2.3688    0.8080 H   0  0  0  0  0  0  0  0  0  0  0  0
    4.1095   -4.2512    0.0860 C   0  0  0  0  0  0  0  0  0  0  0  0
    4.6980   -4.9217    0.7233 H   0  0  0  0  0  0  0  0  0  0  0  0
    3.8163   -4.9647   -1.2635 C   0  0  0  0  0  0  0  0  0  0  0  0
    3.1220   -5.7942   -1.0858 H   0  0  0  0  0  0  0  0  0  0  0  0
    3.1681   -3.9674   -2.2584 C   0  0  0  0  0  0  0  0  0  0  0  0
    3.1376   -4.4307   -3.2529 H   0  0  0  0  0  0  0  0  0  0  0  0
    1.7073   -3.6052   -1.9020 C   0  0  0  0  0  0  0  0  0  0  0  0
    1.1379   -2.7215   -2.8680 O   0  0  0  0  0  0  0  0  0  0  0  0
    4.0250   -2.8142   -2.4188 O   0  0  0  0  0  0  0  0  0  0  0  0
    5.0326   -5.5475   -1.8801 N   0  0  0  0  0  0  0  0  0  0  0  0
    2.8712   -4.0305    0.7674 O   0  0  0  0  0  0  0  0  0  0  0  0
    6.2420   -3.2707   -0.4688 O   0  0  0  0  0  0  0  0  0  0  0  0
    6.7110    1.0674   -2.9661 N   0  0  0  0  0  0  0  0  0  0  0  0
    6.7584    1.1206   -4.4234 C   0  0  0  0  0  0  0  0  0  0  0  0
    4.4409    2.6841   -4.2393 O   0  0  0  0  0  0  0  0  0  0  0  0
    2.6721    3.9577   -2.6537 O   0  0  0  0  0  0  0  0  0  0  0  0
   -0.9362    2.9115   -2.9029 N   0  0  0  0  0  0  0  0  0  0  0  0
    1.0432    4.2516   -0.9265 O   0  0  0  0  0  0  0  0  0  0  0  0
    1.7075    5.3823   -0.3216 C   0  0  0  0  0  0  0  0  0  0  0  0
    2.7828    5.2676   -0.5122 H   0  0  0  0  0  0  0  0  0  0  0  0
    1.2534    6.7673   -0.8425 C   0  0  0  0  0  0  0  0  0  0  0  0
    1.3515    6.7981   -1.9306 H   0  0  0  0  0  0  0  0  0  0  0  0
   -0.2161    7.0709   -0.4771 C   0  0  0  0  0  0  0  0  0  0  0  0
   -0.4627    8.0803   -0.8306 H   0  0  0  0  0  0  0  0  0  0  0  0
   -0.4907    6.9971    1.0458 C   0  0  0  0  0  0  0  0  0  0  0  0
   -1.5787    6.9422    1.1911 H   0  0  0  0  0  0  0  0  0  0  0  0
    0.0900    5.7106    1.6670 C   0  0  0  0  0  0  0  0  0  0  0  0
    1.5178    5.3284    1.2287 C   0  0  0  0  0  0  0  0  0  0  0  0
    1.6948    4.2969    1.5556 H   0  0  0  0  0  0  0  0  0  0  0  0
    2.5161    6.1861    1.9179 N   0  0  0  0  0  0  0  0  0  0  0  0
   -0.0495    8.2003    1.7772 N   0  0  0  0  0  0  0  0  0  0  0  0
   -1.1366    6.1825   -1.1164 O   0  0  0  0  0  0  0  0  0  0  0  0
    2.1085    7.8129   -0.3446 O   0  0  0  0  0  0  0  0  0  0  0  0
    0.5258    0.6802   -2.5774 H   0  0  0  0  0  0  0  0  0  0  0  0
    0.8551    1.6107   -1.1265 H   0  0  0  0  0  0  0  0  0  0  0  0
    1.0910   -4.5124   -1.8652 H   0  0  0  0  0  0  0  0  0  0  0  0
    1.6067   -3.1003   -0.9434 H   0  0  0  0  0  0  0  0  0  0  0  0
    1.1935   -3.1588   -3.7338 H   0  0  0  0  0  0  0  0  0  0  0  0
    5.7379   -5.7197   -1.1593 H   0  0  0  0  0  0  0  0  0  0  0  0
    5.4573   -4.8573   -2.5025 H   0  0  0  0  0  0  0  0  0  0  0  0
    3.0134   -3.3760    1.4761 H   0  0  0  0  0  0  0  0  0  0  0  0
    6.3448   -3.0474   -1.4137 H   0  0  0  0  0  0  0  0  0  0  0  0
    7.0200    0.1428   -2.6639 H   0  0  0  0  0  0  0  0  0  0  0  0
    6.6356    2.1389   -4.8043 H   0  0  0  0  0  0  0  0  0  0  0  0
    6.0280    0.4532   -4.8901 H   0  0  0  0  0  0  0  0  0  0  0  0
    7.7527    0.8070   -4.7591 H   0  0  0  0  0  0  0  0  0  0  0  0
    4.0179    3.5561   -4.3945 H   0  0  0  0  0  0  0  0  0  0  0  0
   -1.2878    2.6476   -1.9888 H   0  0  0  0  0  0  0  0  0  0  0  0
   -1.3030    2.2052   -3.5489 H   0  0  0  0  0  0  0  0  0  0  0  0
   -0.5757    4.8778    1.4113 H   0  0  0  0  0  0  0  0  0  0  0  0
    0.0463    5.7827    2.7643 H   0  0  0  0  0  0  0  0  0  0  0  0
    2.9047    5.6404    2.6946 H   0  0  0  0  0  0  0  0  0  0  0  0
    2.0185    6.9367    2.4127 H   0  0  0  0  0  0  0  0  0  0  0  0
   -0.5904    8.9928    1.4233 H   0  0  0  0  0  0  0  0  0  0  0  0
    0.9102    8.4305    1.5058 H   0  0  0  0  0  0  0  0  0  0  0  0
   -0.8026    5.9456   -1.9968 H   0  0  0  0  0  0  0  0  0  0  0  0
    2.6510    7.4229    0.3781 H   0  0  0  0  0  0  0  0  0  0  0  0
  1  2  1  0  0  0  0
  1  3  1  0  0  0  0
  1 37  1  0  0  0  0
  1 39  1  0  0  0  0
  3  5  1  0  0  0  0
  3 38  1  0  0  0  0
  3  4  1  0  0  0  0
  5  6  1  0  0  0  0
  5 55  1  0  0  0  0
  5 56  1  0  0  0  0
  6  7  1  0  0  0  0
  6  8  1  0  0  0  0
  6 16  1  0  0  0  0
  8  9  1  0  0  0  0
  8 10  1  0  0  0  0
  8 37  1  0  0  0  0
 10 11  1  0  0  0  0
 10 12  1  0  0  0  0
 10 36  1  0  0  0  0
 12 13  1  0  0  0  0
 12 14  1  0  0  0  0
 12 34  1  0  0  0  0
 14 16  1  0  0  0  0
 14 17  1  0  0  0  0
 14 15  1  0  0  0  0
 18 20  1  0  0  0  0
 18 30  1  0  0  0  0
 18 19  1  0  0  0  0
 18 17  1  0  0  0  0
 20 22  1  0  0  0  0
 20 33  1  0  0  0  0
 20 21  1  0  0  0  0
 22 24  1  0  0  0  0
 22 32  1  0  0  0  0
 22 23  1  0  0  0  0
 24 25  1  0  0  0  0
 24 26  1  0  0  0  0
 24 31  1  0  0  0  0
 26 30  1  0  0  0  0
 26 28  1  0  0  0  0
 26 27  1  0  0  0  0
 28 29  1  0  0  0  0
 28 57  1  0  0  0  0
 28 58  1  0  0  0  0
 29 59  1  0  0  0  0
 31 60  1  0  0  0  0
 31 61  1  0  0  0  0
 32 62  1  0  0  0  0
 33 63  1  0  0  0  0
 34 35  1  0  0  0  0
 34 64  1  0  0  0  0
 35 65  1  0  0  0  0
 35 66  1  0  0  0  0
 35 67  1  0  0  0  0
 36 68  1  0  0  0  0
 38 69  1  0  0  0  0
 38 70  1  0  0  0  0
 39 40  1  0  0  0  0
 40 41  1  0  0  0  0
 40 42  1  0  0  0  0
 42 44  1  0  0  0  0
 42 54  1  0  0  0  0
 42 43  1  0  0  0  0
 44 46  1  0  0  0  0
 44 53  1  0  0  0  0
 44 45  1  0  0  0  0
 46 47  1  0  0  0  0
 46 48  1  0  0  0  0
 46 52  1  0  0  0  0
 48 49  1  0  0  0  0
 48 71  1  0  0  0  0
 48 72  1  0  0  0  0
 49 50  1  0  0  0  0
 49 40  1  0  0  0  0
 49 51  1  0  0  0  0
 51 73  1  0  0  0  0
 51 74  1  0  0  0  0
 52 75  1  0  0  0  0
 52 76  1  0  0  0  0
 53 77  1  0  0  0  0
 54 78  1  0  0  0  0
M  END
>  <energy>
113.06600483476731

$$$$
