REMARK  16 active torsions:
REMARK  status: ('A' for Active; 'I' for Inactive)
REMARK    1  A    between atoms: C_1  and  O_27 
REMARK    2  A    between atoms: C_2  and  N_26 
REMARK    3  A    between atoms: C_6  and  O_24 
REMARK    4  A    between atoms: C_7  and  N_22 
REMARK    5  A    between atoms: C_8  and  O_10 
REMARK    6  A    between atoms: C_11  and  O_10 
REMARK    7  A    between atoms: C_12  and  O_21 
REMARK    8  A    between atoms: C_13  and  O_20 
REMARK    9  A    between atoms: C_14  and  N_19 
REMARK   10  A    between atoms: C_15  and  C_16 
REMARK   11  A    between atoms: C_16  and  O_17 
REMARK   12  A    between atoms: O_27  and  C_28 
REMARK   13  A    between atoms: C_29  and  O_37 
REMARK   14  A    between atoms: C_30  and  O_36 
REMARK   15  A    between atoms: C_31  and  N_35 
REMARK   16  A    between atoms: C_33  and  N_34 
ROOT
ATOM      1  C   UNL d   1       1.284   4.078  -2.332  0.00  0.00     0.293 C 
ATOM      2  C   UNL d   1       0.532   2.834  -2.914  0.00  0.00     0.275 C 
ATOM      3  C   UNL d   1       1.034   1.579  -2.207  0.00  0.00     0.075 C 
ATOM      4  C   UNL d   1       2.529   1.464  -2.510  0.00  0.00     0.158 C 
ATOM      5  C   UNL d   1       3.277   2.754  -2.159  0.00  0.00     0.184 C 
ATOM      6  C   UNL d   1       4.661   2.624  -2.815  0.00  0.00     0.187 C 
ATOM      7  C   UNL d   1       5.371   1.317  -2.358  0.00  0.00     0.305 C 
ATOM      8  C   UNL d   1       4.415   0.059  -2.317  0.00  0.00     0.299 C 
ATOM      9  O   UNL d   1       3.127   0.398  -1.780  0.00  0.00    -0.351 OA
ATOM     10  O   UNL d   1       2.672   3.958  -2.654  0.00  0.00    -0.349 OA
ENDROOT
BRANCH   1  11
ATOM     11  O   UNL d   1       1.043   4.252  -0.926  0.00  0.00    -0.349 OA
BRANCH  11  12
ATOM     12  C   UNL d   1       1.708   5.382  -0.322  0.00  0.00     0.189 C 
ATOM     13  C   UNL d   1       1.253   6.767  -0.843  0.00  0.00     0.180 C 
ATOM     14  C   UNL d   1      -0.216   7.071  -0.477  0.00  0.00     0.182 C 
ATOM     15  C   UNL d   1      -0.491   6.997   1.046  0.00  0.00     0.251 C 
ATOM     16  C   UNL d   1       0.090   5.711   1.667  0.00  0.00     0.076 C 
ATOM     17  C   UNL d   1       1.518   5.328   1.229  0.00  0.00     0.251 C 
BRANCH  13  18
ATOM     18  O   UNL d   1       2.108   7.813  -0.345  0.00  0.00    -0.390 OA
ATOM     19  H   UNL d   1       2.651   7.423   0.378  0.00  0.00     0.210 HD
ENDBRANCH  13  18
BRANCH  14  20
ATOM     20  O   UNL d   1      -1.137   6.183  -1.116  0.00  0.00    -0.391 OA
ATOM     21  H   UNL d   1      -0.803   5.946  -1.997  0.00  0.00     0.210 HD
ENDBRANCH  14  20
BRANCH  15  22
ATOM     22  N   UNL d   1      -0.050   8.200   1.777  0.00  0.00     0.085 N 
ATOM     23  H   UNL d   1      -0.590   8.993   1.423  0.00  0.00     0.313 HD
ATOM     24  H   UNL d   1       0.910   8.431   1.506  0.00  0.00     0.313 HD
ENDBRANCH  15  22
BRANCH  17  25
ATOM     25  N   UNL d   1       2.516   6.186   1.918  0.00  0.00     0.085 N 
ATOM     26  H   UNL d   1       2.905   5.640   2.695  0.00  0.00     0.313 HD
ATOM     27  H   UNL d   1       2.018   6.937   2.413  0.00  0.00     0.313 HD
ENDBRANCH  17  25
ENDBRANCH  11  12
ENDBRANCH   1  11
BRANCH   2  28
ATOM     28  N   UNL d   1      -0.936   2.912  -2.903  0.00  0.00     0.087 N 
ATOM     29  H   UNL d   1      -1.288   2.648  -1.989  0.00  0.00     0.313 HD
ATOM     30  H   UNL d   1      -1.303   2.205  -3.549  0.00  0.00     0.313 HD
ENDBRANCH   2  28
BRANCH   6  31
ATOM     31  O   UNL d   1       4.441   2.684  -4.239  0.00  0.00    -0.391 OA
ATOM     32  H   UNL d   1       4.018   3.556  -4.394  0.00  0.00     0.210 HD
ENDBRANCH   6  31
BRANCH   7  33
ATOM     33  N   UNL d   1       6.711   1.067  -2.966  0.00  0.00     0.091 N 
ATOM     34  C   UNL d   1       6.758   1.121  -4.423  0.00  0.00     0.307 C 
ATOM     35  H   UNL d   1       7.020   0.143  -2.664  0.00  0.00     0.316 HD
ENDBRANCH   7  33
BRANCH   8  36
ATOM     36  O   UNL d   1       5.044  -0.930  -1.474  0.00  0.00    -0.327 OA
BRANCH  36  37
ATOM     37  C   UNL d   1       4.204  -2.063  -1.217  0.00  0.00     0.294 C 
ATOM     38  C   UNL d   1       4.885  -2.939  -0.128  0.00  0.00     0.204 C 
ATOM     39  C   UNL d   1       4.109  -4.251   0.086  0.00  0.00     0.187 C 
ATOM     40  C   UNL d   1       3.816  -4.965  -1.264  0.00  0.00     0.279 C 
ATOM     41  C   UNL d   1       3.168  -3.967  -2.258  0.00  0.00     0.183 C 
ATOM     42  O   UNL d   1       4.025  -2.814  -2.419  0.00  0.00    -0.349 OA
BRANCH  38  43
ATOM     43  O   UNL d   1       6.242  -3.271  -0.469  0.00  0.00    -0.388 OA
ATOM     44  H   UNL d   1       6.345  -3.047  -1.414  0.00  0.00     0.210 HD
ENDBRANCH  38  43
BRANCH  39  45
ATOM     45  O   UNL d   1       2.871  -4.030   0.767  0.00  0.00    -0.391 OA
ATOM     46  H   UNL d   1       3.013  -3.376   1.476  0.00  0.00     0.210 HD
ENDBRANCH  39  45
BRANCH  40  47
ATOM     47  N   UNL d   1       5.033  -5.548  -1.880  0.00  0.00     0.088 N 
ATOM     48  H   UNL d   1       5.738  -5.720  -1.159  0.00  0.00     0.313 HD
ATOM     49  H   UNL d   1       5.457  -4.857  -2.502  0.00  0.00     0.313 HD
ENDBRANCH  40  47
BRANCH  41  50
ATOM     50  C   UNL d   1       1.707  -3.605  -1.902  0.00  0.00     0.198 C 
BRANCH  50  51
ATOM     51  O   UNL d   1       1.138  -2.721  -2.868  0.00  0.00    -0.398 OA
ATOM     52  H   UNL d   1       1.194  -3.159  -3.734  0.00  0.00     0.209 HD
ENDBRANCH  50  51
ENDBRANCH  41  50
ENDBRANCH  36  37
ENDBRANCH   8  36
TORSDOF 16
