2ESJ_LIV_A_50
 OpenBabel03221817193D

107111  0  0  1  0  0  0  0  0999 V2000
    3.7639  -14.2310    4.4308 C   0  0  2  0  0  0  0  0  0  0  0  0
    4.2350  -15.1373    4.0353 H   0  0  0  0  0  0  0  0  0  0  0  0
    2.3644  -14.5605    4.4468 O   0  0  0  0  0  0  0  0  0  0  0  0
    1.4256  -13.5683    4.9302 C   0  0  1  0  0  0  0  0  0  0  0  0
    1.6444  -13.3739    5.9799 H   0  0  0  0  0  0  0  0  0  0  0  0
    1.4260  -12.2297    4.1272 C   0  0  1  0  0  0  0  0  0  0  0  0
    2.4460  -11.8553    4.0738 H   0  0  0  0  0  0  0  0  0  0  0  0
    0.8851  -12.4677    2.6909 C   0  0  2  0  0  0  0  0  0  0  0  0
    0.9004  -11.5419    2.1138 H   0  0  0  0  0  0  0  0  0  0  0  0
   -0.5625  -13.0153    2.7095 C   0  0  2  0  0  0  0  0  0  0  0  0
   -0.8409  -13.2743    1.6823 H   0  0  0  0  0  0  0  0  0  0  0  0
   -1.5687  -12.0522    3.1814 N   0  0  0  0  0  0  0  0  0  0  0  0
   -0.6146  -14.3111    3.5299 C   0  0  0  0  0  0  0  0  0  0  0  0
   -0.0008  -14.2165    4.9404 C   0  0  2  0  0  0  0  0  0  0  0  0
    0.0978  -15.2480    5.3046 H   0  0  0  0  0  0  0  0  0  0  0  0
   -0.9038  -13.5397    5.8828 N   0  0  0  0  0  0  0  0  0  0  0  0
    1.6928  -13.3674    1.9127 O   0  0  0  0  0  0  0  0  0  0  0  0
    0.6785  -11.2168    4.8452 O   0  0  0  0  0  0  0  0  0  0  0  0
    0.7966   -9.9259    4.2394 C   0  0  1  0  0  0  0  0  0  0  0  0
    0.4399   -9.9647    3.2064 H   0  0  0  0  0  0  0  0  0  0  0  0
   -0.0232   -8.8710    4.9746 C   0  0  2  0  0  0  0  0  0  0  0  0
    0.1238   -8.9539    6.0560 H   0  0  0  0  0  0  0  0  0  0  0  0
   -1.4168   -8.9623    4.7152 O   0  0  0  0  0  0  0  0  0  0  0  0
    0.6066   -7.5994    4.4088 C   0  0  1  0  0  0  0  0  0  0  0  0
    0.3961   -6.7495    5.0613 H   0  0  0  0  0  0  0  0  0  0  0  0
    2.0914   -8.0022    4.3324 C   0  0  2  0  0  0  0  0  0  0  0  0
    2.5861   -7.6227    3.4366 H   0  0  0  0  0  0  0  0  0  0  0  0
    2.1451   -9.4442    4.2454 O   0  0  0  0  0  0  0  0  0  0  0  0
    2.9149   -7.5645    5.5449 C   0  0  0  0  0  0  0  0  0  0  0  0
    2.4329   -8.1469    6.7488 O   0  0  0  0  0  0  0  0  0  0  0  0
    0.0189   -7.3538    3.0996 O   0  0  0  0  0  0  0  0  0  0  0  0
    0.5409   -6.2122    2.3906 C   0  0  2  0  0  0  0  0  0  0  0  0
    1.5868   -6.4304    2.1630 H   0  0  0  0  0  0  0  0  0  0  0  0
    0.4262   -4.8802    3.1890 C   0  0  1  0  0  0  0  0  0  0  0  0
    0.9936   -4.9687    4.1185 H   0  0  0  0  0  0  0  0  0  0  0  0
    1.0886   -3.7628    2.3500 C   0  0  2  0  0  0  0  0  0  0  0  0
    0.9601   -2.8150    2.8795 H   0  0  0  0  0  0  0  0  0  0  0  0
    0.4938   -3.6728    0.9273 C   0  0  2  0  0  0  0  0  0  0  0  0
    1.1018   -2.9985    0.3108 H   0  0  0  0  0  0  0  0  0  0  0  0
   -0.8731   -3.2150    0.9020 O   0  0  0  0  0  0  0  0  0  0  0  0
   -1.0919   -1.9173    1.4736 C   0  0  2  0  0  0  0  0  0  0  0  0
   -0.9133   -1.9996    2.5463 H   0  0  0  0  0  0  0  0  0  0  0  0
   -2.5772   -1.5669    1.2584 C   0  0  2  0  0  0  0  0  0  0  0  0
   -2.8245   -1.6079    0.1913 H   0  0  0  0  0  0  0  0  0  0  0  0
   -2.8786   -0.1711    1.8099 C   0  0  2  0  0  0  0  0  0  0  0  0
   -3.9007    0.1093    1.5293 H   0  0  0  0  0  0  0  0  0  0  0  0
   -1.8769    0.8573    1.2750 C   0  0  1  0  0  0  0  0  0  0  0  0
   -2.0062    1.8237    1.7758 H   0  0  0  0  0  0  0  0  0  0  0  0
   -0.4180    0.3785    1.4544 C   0  0  1  0  0  0  0  0  0  0  0  0
    0.2354    1.0179    0.8457 H   0  0  0  0  0  0  0  0  0  0  0  0
    0.0724    0.4682    2.9142 C   0  0  0  0  0  0  0  0  0  0  0  0
    1.4356    0.0612    3.0308 O   0  0  0  0  0  0  0  0  0  0  0  0
   -0.2372   -0.9430    0.8966 O   0  0  0  0  0  0  0  0  0  0  0  0
   -2.1223    1.0623   -0.1247 O   0  0  0  0  0  0  0  0  0  0  0  0
   -2.8527   -0.1975    3.2417 O   0  0  0  0  0  0  0  0  0  0  0  0
   -3.4276   -2.5060    1.9421 O   0  0  0  0  0  0  0  0  0  0  0  0
    0.5345   -5.0836    0.2721 C   0  0  1  0  0  0  0  0  0  0  0  0
    1.5775   -5.4018    0.1428 H   0  0  0  0  0  0  0  0  0  0  0  0
   -0.1216   -6.0601    1.1172 O   0  0  0  0  0  0  0  0  0  0  0  0
   -0.1076   -5.0421   -1.1383 C   0  0  0  0  0  0  0  0  0  0  0  0
    0.0096   -6.3048   -1.8745 N   0  0  0  0  0  0  0  0  0  0  0  0
    2.5149   -3.9624    2.3314 O   0  0  0  0  0  0  0  0  0  0  0  0
   -0.9768   -4.6037    3.5636 N   0  0  0  0  0  0  0  0  0  0  0  0
    4.4442  -13.9792    5.8229 C   0  0  2  0  0  0  0  0  0  0  0  0
    4.4532  -14.9353    6.3605 H   0  0  0  0  0  0  0  0  0  0  0  0
    3.7680  -13.0232    6.7186 N   0  0  0  0  0  0  0  0  0  0  0  0
    5.8847  -13.4924    5.6158 C   0  0  0  0  0  0  0  0  0  0  0  0
    5.9397  -12.3127    4.6470 C   0  0  2  0  0  0  0  0  0  0  0  0
    6.9764  -12.0038    4.4754 H   0  0  0  0  0  0  0  0  0  0  0  0
    5.2795  -11.1810    5.2453 O   0  0  0  0  0  0  0  0  0  0  0  0
    5.2535  -12.6224    3.3071 C   0  0  2  0  0  0  0  0  0  0  0  0
    5.0420  -11.6615    2.8192 H   0  0  0  0  0  0  0  0  0  0  0  0
    3.9690  -13.2327    3.4390 O   0  0  0  0  0  0  0  0  0  0  0  0
    6.1272  -13.4066    2.3207 C   0  0  0  0  0  0  0  0  0  0  0  0
    6.4924  -14.6883    2.8166 O   0  0  0  0  0  0  0  0  0  0  0  0
   -1.5590  -11.2228    2.5873 H   0  0  0  0  0  0  0  0  0  0  0  0
   -1.3080  -11.7062    4.1097 H   0  0  0  0  0  0  0  0  0  0  0  0
   -0.0733  -15.0898    2.9752 H   0  0  0  0  0  0  0  0  0  0  0  0
   -1.6497  -14.6714    3.5900 H   0  0  0  0  0  0  0  0  0  0  0  0
   -1.8499  -13.5092    5.5009 H   0  0  0  0  0  0  0  0  0  0  0  0
   -0.6208  -12.5581    5.9827 H   0  0  0  0  0  0  0  0  0  0  0  0
    2.2685  -13.8562    2.5337 H   0  0  0  0  0  0  0  0  0  0  0  0
   -1.5851   -8.4064    3.9296 H   0  0  0  0  0  0  0  0  0  0  0  0
    3.9587   -7.8738    5.4273 H   0  0  0  0  0  0  0  0  0  0  0  0
    2.8876   -6.4761    5.6530 H   0  0  0  0  0  0  0  0  0  0  0  0
    2.5780   -9.1098    6.6628 H   0  0  0  0  0  0  0  0  0  0  0  0
   -0.0128    1.4918    3.2931 H   0  0  0  0  0  0  0  0  0  0  0  0
   -0.4848   -0.1821    3.5891 H   0  0  0  0  0  0  0  0  0  0  0  0
    1.9789    0.6932    2.5301 H   0  0  0  0  0  0  0  0  0  0  0  0
   -3.0283    1.4049   -0.2254 H   0  0  0  0  0  0  0  0  0  0  0  0
   -3.3470   -1.0078    3.4916 H   0  0  0  0  0  0  0  0  0  0  0  0
   -3.2641   -3.3697    1.5131 H   0  0  0  0  0  0  0  0  0  0  0  0
    0.3821   -4.2599   -1.7315 H   0  0  0  0  0  0  0  0  0  0  0  0
   -1.1717   -4.7955   -1.0703 H   0  0  0  0  0  0  0  0  0  0  0  0
    0.9834   -6.5798   -1.9708 H   0  0  0  0  0  0  0  0  0  0  0  0
   -0.3571   -6.1820   -2.8174 H   0  0  0  0  0  0  0  0  0  0  0  0
    2.7702   -4.6025    1.6486 H   0  0  0  0  0  0  0  0  0  0  0  0
   -1.5400   -4.6095    2.7100 H   0  0  0  0  0  0  0  0  0  0  0  0
   -1.0630   -3.6774    3.9752 H   0  0  0  0  0  0  0  0  0  0  0  0
    3.7712  -12.1037    6.2651 H   0  0  0  0  0  0  0  0  0  0  0  0
    4.2786  -12.9288    7.5916 H   0  0  0  0  0  0  0  0  0  0  0  0
    6.4992  -14.3175    5.2428 H   0  0  0  0  0  0  0  0  0  0  0  0
    6.3238  -13.2016    6.5794 H   0  0  0  0  0  0  0  0  0  0  0  0
    5.7563  -10.9655    6.0659 H   0  0  0  0  0  0  0  0  0  0  0  0
    5.5977  -13.5470    1.3714 H   0  0  0  0  0  0  0  0  0  0  0  0
    7.0486  -12.8524    2.1136 H   0  0  0  0  0  0  0  0  0  0  0  0
    5.8879  -15.3303    2.4013 H   0  0  0  0  0  0  0  0  0  0  0  0
  1 64  1  1  0  0  0
  1 73  1  0  0  0  0
  1  3  1  0  0  0  0
  1  2  1  0  0  0  0
  3  4  1  0  0  0  0
  4  5  1  0  0  0  0
  4  6  1  6  0  0  0
  6  8  1  6  0  0  0
  6 18  1  0  0  0  0
  6  7  1  0  0  0  0
  8 10  1  1  0  0  0
  8 17  1  0  0  0  0
  8  9  1  0  0  0  0
 10 11  1  6  0  0  0
 10 12  1  0  0  0  0
 10 13  1  0  0  0  0
 12 76  1  0  0  0  0
 12 77  1  0  0  0  0
 13 14  1  0  0  0  0
 13 78  1  0  0  0  0
 13 79  1  0  0  0  0
 14 15  1  0  0  0  0
 14  4  1  6  0  0  0
 14 16  1  0  0  0  0
 16 80  1  0  0  0  0
 16 81  1  0  0  0  0
 17 82  1  0  0  0  0
 18 19  1  0  0  0  0
 19 20  1  0  0  0  0
 19 21  1  1  0  0  0
 19 28  1  0  0  0  0
 21 24  1  6  0  0  0
 21 23  1  0  0  0  0
 21 22  1  0  0  0  0
 23 83  1  0  0  0  0
 24 25  1  0  0  0  0
 24 26  1  6  0  0  0
 24 31  1  0  0  0  0
 26 28  1  0  0  0  0
 26 29  1  0  0  0  0
 26 27  1  6  0  0  0
 29 30  1  0  0  0  0
 29 84  1  0  0  0  0
 29 85  1  0  0  0  0
 30 86  1  0  0  0  0
 32 59  1  0  0  0  0
 32 33  1  6  0  0  0
 32 31  1  0  0  0  0
 34 32  1  6  0  0  0
 34 63  1  0  0  0  0
 34 35  1  0  0  0  0
 36 34  1  1  0  0  0
 36 62  1  0  0  0  0
 36 37  1  0  0  0  0
 38 36  1  1  0  0  0
 38 39  1  0  0  0  0
 38 40  1  0  0  0  0
 41 43  1  6  0  0  0
 41 53  1  0  0  0  0
 41 42  1  0  0  0  0
 41 40  1  0  0  0  0
 43 44  1  0  0  0  0
 43 45  1  1  0  0  0
 43 56  1  0  0  0  0
 45 47  1  6  0  0  0
 45 55  1  0  0  0  0
 45 46  1  0  0  0  0
 47 48  1  0  0  0  0
 47 49  1  1  0  0  0
 47 54  1  0  0  0  0
 49 53  1  0  0  0  0
 49 51  1  0  0  0  0
 49 50  1  6  0  0  0
 51 52  1  0  0  0  0
 51 87  1  0  0  0  0
 51 88  1  0  0  0  0
 52 89  1  0  0  0  0
 54 90  1  0  0  0  0
 55 91  1  0  0  0  0
 56 92  1  0  0  0  0
 57 38  1  1  0  0  0
 57 58  1  0  0  0  0
 57 59  1  0  0  0  0
 57 60  1  0  0  0  0
 60 61  1  0  0  0  0
 60 93  1  0  0  0  0
 60 94  1  0  0  0  0
 61 95  1  0  0  0  0
 61 96  1  0  0  0  0
 62 97  1  0  0  0  0
 63 98  1  0  0  0  0
 63 99  1  0  0  0  0
 64 67  1  0  0  0  0
 64 66  1  0  0  0  0
 64 65  1  1  0  0  0
 66100  1  0  0  0  0
 66101  1  0  0  0  0
 67 68  1  0  0  0  0
 67102  1  0  0  0  0
 67103  1  0  0  0  0
 68 69  1  0  0  0  0
 68 70  1  0  0  0  0
 68 71  1  6  0  0  0
 70104  1  0  0  0  0
 71 73  1  0  0  0  0
 71 74  1  0  0  0  0
 71 72  1  6  0  0  0
 74 75  1  0  0  0  0
 74105  1  0  0  0  0
 74106  1  0  0  0  0
 75107  1  0  0  0  0
M  END
$$$$
