@<TRIPOS>MOLECULE
2ESJ_LIV_A_50
 107 111 0 0 0
SMALL
GASTEIGER

@<TRIPOS>ATOM
      1 C           3.7639  -14.2310    4.4308 C.3     1  UNL1        0.1752
      2 H           4.2350  -15.1373    4.0353 H       1  UNL1        0.0926
      3 O           2.3644  -14.5605    4.4468 O.3     1  UNL1       -0.3423
      4 C           1.4256  -13.5683    4.9302 C.3     1  UNL1        0.1055
      5 H           1.6444  -13.3739    5.9799 H       1  UNL1        0.0639
      6 C           1.4260  -12.2297    4.1272 C.3     1  UNL1        0.1166
      7 H           2.4460  -11.8553    4.0738 H       1  UNL1        0.0650
      8 C           0.8851  -12.4677    2.6909 C.3     1  UNL1        0.0990
      9 H           0.9004  -11.5419    2.1138 H       1  UNL1        0.0636
     10 C          -0.5625  -13.0153    2.7095 C.3     1  UNL1        0.0351
     11 H          -0.8409  -13.2743    1.6823 H       1  UNL1        0.0485
     12 N          -1.5687  -12.0522    3.1814 N.3     1  UNL1       -0.3250
     13 C          -0.6146  -14.3111    3.5299 C.3     1  UNL1       -0.0175
     14 C          -0.0008  -14.2165    4.9404 C.3     1  UNL1        0.0355
     15 H           0.0978  -15.2480    5.3046 H       1  UNL1        0.0485
     16 N          -0.9038  -13.5397    5.8828 N.3     1  UNL1       -0.3250
     17 O           1.6928  -13.3674    1.9127 O.3     1  UNL1       -0.3876
     18 O           0.6785  -11.2168    4.8452 O.3     1  UNL1       -0.3402
     19 C           0.7966   -9.9259    4.2394 C.3     1  UNL1        0.1884
     20 H           0.4399   -9.9647    3.2064 H       1  UNL1        0.0938
     21 C          -0.0232   -8.8710    4.9746 C.3     1  UNL1        0.1345
     22 H           0.1238   -8.9539    6.0560 H       1  UNL1        0.0671
     23 O          -1.4168   -8.9623    4.7152 O.3     1  UNL1       -0.3841
     24 C           0.6066   -7.5994    4.4088 C.3     1  UNL1        0.1205
     25 H           0.3961   -6.7495    5.0613 H       1  UNL1        0.0651
     26 C           2.0914   -8.0022    4.3324 C.3     1  UNL1        0.1135
     27 H           2.5861   -7.6227    3.4366 H       1  UNL1        0.0647
     28 O           2.1451   -9.4442    4.2454 O.3     1  UNL1       -0.3405
     29 C           2.9149   -7.5645    5.5449 C.3     1  UNL1        0.0730
     30 O           2.4329   -8.1469    6.7488 O.3     1  UNL1       -0.3924
     31 O           0.0189   -7.3538    3.0996 O.3     1  UNL1       -0.3410
     32 C           0.5409   -6.2122    2.3906 C.3     1  UNL1        0.1776
     33 H           1.5868   -6.4304    2.1630 H       1  UNL1        0.0927
     34 C           0.4262   -4.8802    3.1890 C.3     1  UNL1        0.0853
     35 H           0.9936   -4.9687    4.1185 H       1  UNL1        0.0535
     36 C           1.0886   -3.7628    2.3500 C.3     1  UNL1        0.1036
     37 H           0.9601   -2.8150    2.8795 H       1  UNL1        0.0637
     38 C           0.4938   -3.6728    0.9273 C.3     1  UNL1        0.1165
     39 H           1.1018   -2.9985    0.3108 H       1  UNL1        0.0650
     40 O          -0.8731   -3.2150    0.9020 O.3     1  UNL1       -0.3402
     41 C          -1.0919   -1.9173    1.4736 C.3     1  UNL1        0.1884
     42 H          -0.9133   -1.9996    2.5463 H       1  UNL1        0.0938
     43 C          -2.5772   -1.5669    1.2584 C.3     1  UNL1        0.1341
     44 H          -2.8245   -1.6079    0.1913 H       1  UNL1        0.0671
     45 C          -2.8786   -0.1711    1.8099 C.3     1  UNL1        0.1141
     46 H          -3.9007    0.1093    1.5293 H       1  UNL1        0.0648
     47 C          -1.8769    0.8573    1.2750 C.3     1  UNL1        0.1119
     48 H          -2.0062    1.8237    1.7758 H       1  UNL1        0.0647
     49 C          -0.4180    0.3785    1.4544 C.3     1  UNL1        0.1130
     50 H           0.2354    1.0179    0.8457 H       1  UNL1        0.0647
     51 C           0.0724    0.4682    2.9142 C.3     1  UNL1        0.0730
     52 O           1.4356    0.0612    3.0308 O.3     1  UNL1       -0.3924
     53 O          -0.2372   -0.9430    0.8966 O.3     1  UNL1       -0.3405
     54 O          -2.1223    1.0623   -0.1247 O.3     1  UNL1       -0.3865
     55 O          -2.8527   -0.1975    3.2417 O.3     1  UNL1       -0.3864
     56 O          -3.4276   -2.5060    1.9421 O.3     1  UNL1       -0.3841
     57 C           0.5345   -5.0836    0.2721 C.3     1  UNL1        0.1026
     58 H           1.5775   -5.4018    0.1428 H       1  UNL1        0.0636
     59 O          -0.1216   -6.0601    1.1172 O.3     1  UNL1       -0.3425
     60 C          -0.1076   -5.0421   -1.1383 C.3     1  UNL1        0.0222
     61 N           0.0096   -6.3048   -1.8745 N.3     1  UNL1       -0.3276
     62 O           2.5149   -3.9624    2.3314 O.3     1  UNL1       -0.3874
     63 N          -0.9768   -4.6037    3.5636 N.3     1  UNL1       -0.3211
     64 C           4.4442  -13.9792    5.8229 C.3     1  UNL1        0.0590
     65 H           4.4532  -14.9353    6.3605 H       1  UNL1        0.0509
     66 N           3.7680  -13.0232    6.7186 N.3     1  UNL1       -0.3231
     67 C           5.8847  -13.4924    5.6158 C.3     1  UNL1       -0.0044
     68 C           5.9397  -12.3127    4.6470 C.3     1  UNL1        0.0851
     69 H           6.9764  -12.0038    4.4754 H       1  UNL1        0.0620
     70 O           5.2795  -11.1810    5.2453 O.3     1  UNL1       -0.3891
     71 C           5.2535  -12.6224    3.3071 C.3     1  UNL1        0.1105
     72 H           5.0420  -11.6615    2.8192 H       1  UNL1        0.0646
     73 O           3.9690  -13.2327    3.4390 O.3     1  UNL1       -0.3417
     74 C           6.1272  -13.4066    2.3207 C.3     1  UNL1        0.0729
     75 O           6.4924  -14.6883    2.8166 O.3     1  UNL1       -0.3924
     76 H          -1.5590  -11.2228    2.5873 H       1  UNL1        0.1185
     77 H          -1.3080  -11.7062    4.1097 H       1  UNL1        0.1185
     78 H          -0.0733  -15.0898    2.9752 H       1  UNL1        0.0297
     79 H          -1.6497  -14.6714    3.5900 H       1  UNL1        0.0297
     80 H          -1.8499  -13.5092    5.5009 H       1  UNL1        0.1185
     81 H          -0.6208  -12.5581    5.9827 H       1  UNL1        0.1185
     82 H           2.2685  -13.8562    2.5337 H       1  UNL1        0.2100
     83 H          -1.5851   -8.4064    3.9296 H       1  UNL1        0.2101
     84 H           3.9587   -7.8738    5.4273 H       1  UNL1        0.0584
     85 H           2.8876   -6.4761    5.6530 H       1  UNL1        0.0584
     86 H           2.5780   -9.1098    6.6628 H       1  UNL1        0.2095
     87 H          -0.0128    1.4918    3.2931 H       1  UNL1        0.0584
     88 H          -0.4848   -0.1821    3.5891 H       1  UNL1        0.0584
     89 H           1.9789    0.6932    2.5301 H       1  UNL1        0.2095
     90 H          -3.0283    1.4049   -0.2254 H       1  UNL1        0.2100
     91 H          -3.3470   -1.0078    3.4916 H       1  UNL1        0.2100
     92 H          -3.2641   -3.3697    1.5131 H       1  UNL1        0.2101
     93 H           0.3821   -4.2599   -1.7315 H       1  UNL1        0.0448
     94 H          -1.1717   -4.7955   -1.0703 H       1  UNL1        0.0448
     95 H           0.9834   -6.5798   -1.9708 H       1  UNL1        0.1183
     96 H          -0.3571   -6.1820   -2.8174 H       1  UNL1        0.1183
     97 H           2.7702   -4.6025    1.6486 H       1  UNL1        0.2100
     98 H          -1.5400   -4.6095    2.7100 H       1  UNL1        0.1187
     99 H          -1.0630   -3.6774    3.9752 H       1  UNL1        0.1187
    100 H           3.7712  -12.1037    6.2651 H       1  UNL1        0.1186
    101 H           4.2786  -12.9288    7.5916 H       1  UNL1        0.1186
    102 H           6.4992  -14.3175    5.2428 H       1  UNL1        0.0308
    103 H           6.3238  -13.2016    6.5794 H       1  UNL1        0.0308
    104 H           5.7563  -10.9655    6.0659 H       1  UNL1        0.2099
    105 H           5.5977  -13.5470    1.3714 H       1  UNL1        0.0584
    106 H           7.0486  -12.8524    2.1136 H       1  UNL1        0.0584
    107 H           5.8879  -15.3303    2.4013 H       1  UNL1        0.2095
@<TRIPOS>BOND
     1     1    64    1
     2     1    73    1
     3     1     3    1
     4     1     2    1
     5     3     4    1
     6     4     5    1
     7     4     6    1
     8     6     8    1
     9     6    18    1
    10     6     7    1
    11     8    10    1
    12     8    17    1
    13     8     9    1
    14    10    11    1
    15    10    12    1
    16    10    13    1
    17    12    76    1
    18    12    77    1
    19    13    14    1
    20    13    78    1
    21    13    79    1
    22    14    15    1
    23    14     4    1
    24    14    16    1
    25    16    80    1
    26    16    81    1
    27    17    82    1
    28    18    19    1
    29    19    20    1
    30    19    21    1
    31    19    28    1
    32    21    24    1
    33    21    23    1
    34    21    22    1
    35    23    83    1
    36    24    25    1
    37    24    26    1
    38    24    31    1
    39    26    28    1
    40    26    29    1
    41    26    27    1
    42    29    30    1
    43    29    84    1
    44    29    85    1
    45    30    86    1
    46    32    59    1
    47    32    33    1
    48    32    31    1
    49    34    32    1
    50    34    63    1
    51    34    35    1
    52    36    34    1
    53    36    62    1
    54    36    37    1
    55    38    36    1
    56    38    39    1
    57    38    40    1
    58    41    43    1
    59    41    53    1
    60    41    42    1
    61    41    40    1
    62    43    44    1
    63    43    45    1
    64    43    56    1
    65    45    47    1
    66    45    55    1
    67    45    46    1
    68    47    48    1
    69    47    49    1
    70    47    54    1
    71    49    53    1
    72    49    51    1
    73    49    50    1
    74    51    52    1
    75    51    87    1
    76    51    88    1
    77    52    89    1
    78    54    90    1
    79    55    91    1
    80    56    92    1
    81    57    38    1
    82    57    58    1
    83    57    59    1
    84    57    60    1
    85    60    61    1
    86    60    93    1
    87    60    94    1
    88    61    95    1
    89    61    96    1
    90    62    97    1
    91    63    98    1
    92    63    99    1
    93    64    67    1
    94    64    66    1
    95    64    65    1
    96    66   100    1
    97    66   101    1
    98    67    68    1
    99    67   102    1
   100    67   103    1
   101    68    69    1
   102    68    70    1
   103    68    71    1
   104    70   104    1
   105    71    73    1
   106    71    74    1
   107    71    72    1
   108    74    75    1
   109    74   105    1
   110    74   106    1
   111    75   107    1
