REMARK  12 active torsions:
REMARK  status: ('A' for Active; 'I' for Inactive)
REMARK    1  A    between atoms: C_6  and  C_5 
REMARK    2  A    between atoms: N_7  and  C_6 
REMARK    3  A    between atoms: C_12  and  C_11 
REMARK    4  A    between atoms: C_13  and  C_12 
REMARK    5  A    between atoms: O_14  and  C_13 
REMARK    6  A    between atoms: P_15  and  O_14 
REMARK    7  A    between atoms: O_17  and  P_15 
REMARK    8  A    between atoms: O_18  and  P_15 
REMARK    9  A    between atoms: P_19  and  O_18 
REMARK   10  A    between atoms: O_21  and  P_19 
REMARK   11  A    between atoms: O_22  and  P_19 
REMARK   12  A    between atoms: N_26  and  C_25 
ROOT
ATOM      1  N   UNL d   1       1.236  -2.365  -0.868  0.00  0.00    -0.356 N 
ATOM      2  C   UNL d   1       1.146  -3.464  -1.653  0.00  0.00     0.091 C 
ATOM      3  C   UNL d   1       0.022  -4.269  -1.652  0.00  0.00     0.018 C 
ATOM      4  C   UNL d   1      -1.079  -3.861  -0.925  0.00  0.00     0.010 C 
ATOM      5  C   UNL d   1      -1.024  -2.687  -0.166  0.00  0.00    -0.034 C 
ATOM      6  C   UNL d   1       0.234  -2.075   0.016  0.00  0.00     0.014 C 
ATOM      7  C   UNL d   1       0.485  -1.081   1.101  0.00  0.00     0.069 C 
ENDROOT
BRANCH   5   8
ATOM      8  C   UNL d   1      -2.325  -2.137   0.365  0.00  0.00     0.067 C 
BRANCH   8   9
ATOM      9  C   UNL d   1      -3.113  -1.449  -0.759  0.00  0.00     0.185 C 
BRANCH   9  10
ATOM     10  O   UNL d   1      -4.022  -2.378  -1.343  0.00  0.00    -0.296 OA
BRANCH  10  11
ATOM     11  P   UNL d   1      -4.735  -1.987  -2.745  0.00  0.00     0.401 P 
ATOM     12  O   UNL d   1      -5.104  -0.541  -2.918  0.00  0.00    -0.631 OA
BRANCH  11  13
ATOM     13  O   UNL d   1      -3.709  -2.567  -3.860  0.00  0.00    -0.307 OA
ATOM     14  H   UNL d   1      -4.069  -3.119  -4.588  0.00  0.00     0.222 HD
ENDBRANCH  11  13
BRANCH  11  15
ATOM     15  O   UNL d   1      -5.969  -3.031  -2.819  0.00  0.00    -0.195 OA
BRANCH  15  16
ATOM     16  P   UNL d   1      -7.448  -2.911  -3.458  0.00  0.00     0.399 P 
ATOM     17  O   UNL d   1      -7.719  -1.668  -4.258  0.00  0.00    -0.631 OA
BRANCH  16  18
ATOM     18  O   UNL d   1      -8.419  -3.129  -2.184  0.00  0.00    -0.307 OA
ATOM     19  H   UNL d   1      -8.736  -4.036  -1.983  0.00  0.00     0.222 HD
ENDBRANCH  16  18
BRANCH  16  20
ATOM     20  O   UNL d   1      -7.602  -4.299  -4.279  0.00  0.00    -0.307 OA
ATOM     21  H   UNL d   1      -8.504  -4.648  -4.455  0.00  0.00     0.222 HD
ENDBRANCH  16  20
ENDBRANCH  15  16
ENDBRANCH  11  15
ENDBRANCH  10  11
ENDBRANCH   9  10
ENDBRANCH   8   9
ENDBRANCH   5   8
BRANCH   1  22
ATOM     22  C   UNL d   1       2.303  -1.374  -1.195  0.00  0.00     0.171 C 
BRANCH  22  23
ATOM     23  C   UNL d   1       3.428  -1.243  -0.212  0.00  0.00     0.018 C 
ATOM     24  C   UNL d   1       3.787   0.035   0.213  0.00  0.00     0.131 C 
ATOM     25  N   UNL d   1       4.931   0.327   0.866  0.00  0.00    -0.245 NA
ATOM     26  C   UNL d   1       5.811  -0.685   0.914  0.00  0.00     0.123 C 
ATOM     27  C   UNL d   1       7.146  -0.389   1.514  0.00  0.00     0.093 C 
ATOM     28  N   UNL d   1       5.405  -1.966   0.869  0.00  0.00    -0.222 NA
ATOM     29  C   UNL d   1       4.413  -2.209  -0.019  0.00  0.00     0.112 C 
BRANCH  29  30
ATOM     30  N   UNL d   1       4.112  -3.560  -0.320  0.00  0.00    -0.286 NA
ATOM     31  H   UNL d   1       3.578  -3.979   0.438  0.00  0.00     0.125 HD
ATOM     32  H   UNL d   1       4.975  -4.084  -0.446  0.00  0.00     0.125 HD
ENDBRANCH  29  30
ENDBRANCH  22  23
ENDBRANCH   1  22
TORSDOF 12
