@<TRIPOS>MOLECULE
3D2V_PYI_A_84
 48 49 0 0 0
SMALL
GASTEIGER

@<TRIPOS>ATOM
      1 C           7.1463   -0.3891    1.5144 C.3     1  UNL1       -0.0046
      2 C           5.8109   -0.6851    0.9144 C.ar    1  UNL1        0.1280
      3 N           4.9314    0.3266    0.8656 N.ar    1  UNL1       -0.2400
      4 C           3.7866    0.0348    0.2135 C.ar    1  UNL1        0.0421
      5 C           3.4284   -1.2431   -0.2117 C.ar    1  UNL1        0.0747
      6 C           2.3031   -1.3741   -1.1954 C.3     1  UNL1        0.1806
      7 N           1.2365   -2.3652   -0.8676 N.ar    1  UNL1       -0.1968
      8 C           1.1461   -3.4642   -1.6534 C.ar    1  UNL1        0.1718
      9 C           0.0223   -4.2685   -1.6522 C.ar    1  UNL1        0.0024
     10 C          -1.0788   -3.8608   -0.9249 C.ar    1  UNL1       -0.0470
     11 C          -1.0236   -2.6869   -0.1664 C.ar    1  UNL1        0.0214
     12 C          -2.3251   -2.1374    0.3649 C.3     1  UNL1        0.0023
     13 C          -3.1133   -1.4492   -0.7590 C.3     1  UNL1        0.0633
     14 O          -4.0219   -2.3780   -1.3432 O.3     1  UNL1       -0.2861
     15 P          -4.7351   -1.9872   -2.7453 P.3     1  UNL1        0.4834
     16 O          -5.1041   -0.5409   -2.9176 O.2     1  UNL1       -0.2269
     17 O          -3.7088   -2.5666   -3.8603 O.3     1  UNL1       -0.3022
     18 O          -5.9692   -3.0308   -2.8194 O.3     1  UNL1       -0.1862
     19 P          -7.4476   -2.9106   -3.4585 P.3     1  UNL1        0.4808
     20 O          -7.7190   -1.6676   -4.2583 O.2     1  UNL1       -0.2271
     21 O          -8.4194   -3.1294   -2.1843 O.3     1  UNL1       -0.3023
     22 O          -7.6018   -4.2990   -4.2790 O.3     1  UNL1       -0.3023
     23 C           0.2339   -2.0751    0.0161 C.ar    1  UNL1        0.1843
     24 C           0.4853   -1.0811    1.1007 C.3     1  UNL1        0.0210
     25 C           4.4133   -2.2093   -0.0191 C.ar    1  UNL1        0.1289
     26 N           4.1120   -3.5597   -0.3198 N.pl3   1  UNL1       -0.3427
     27 N           5.4050   -1.9658    0.8694 N.ar    1  UNL1       -0.2176
     28 H           7.6887   -1.3111    1.7430 H       1  UNL1        0.0308
     29 H           7.7471    0.1944    0.8094 H       1  UNL1        0.0308
     30 H           7.0363    0.1900    2.4366 H       1  UNL1        0.0308
     31 H           3.1407    0.8909    0.0375 H       1  UNL1        0.0836
     32 H           2.7171   -1.6260   -2.1798 H       1  UNL1        0.1087
     33 H           1.7760   -0.4203   -1.3324 H       1  UNL1        0.1087
     34 H           1.9765   -3.6688   -2.3176 H       1  UNL1        0.1376
     35 H          -0.0332   -5.1441   -2.2906 H       1  UNL1        0.0677
     36 H          -2.0079   -4.4192   -1.0217 H       1  UNL1        0.0624
     37 H          -2.1661   -1.4127    1.1655 H       1  UNL1        0.0338
     38 H          -2.9173   -2.9460    0.8090 H       1  UNL1        0.0338
     39 H          -2.4518   -1.0481   -1.5387 H       1  UNL1        0.0569
     40 H          -3.6889   -0.6114   -0.3503 H       1  UNL1        0.0569
     41 H          -4.0691   -3.1195   -4.5882 H       1  UNL1        0.2220
     42 H          -8.7365   -4.0364   -1.9828 H       1  UNL1        0.2220
     43 H          -8.5036   -4.6476   -4.4553 H       1  UNL1        0.2220
     44 H           0.5751   -0.0721    0.7102 H       1  UNL1        0.0336
     45 H          -0.2779   -1.0762    1.8787 H       1  UNL1        0.0336
     46 H           1.4071   -1.3393    1.6234 H       1  UNL1        0.0336
     47 H           3.5781   -3.9794    0.4384 H       1  UNL1        0.1437
     48 H           4.9752   -4.0840   -0.4462 H       1  UNL1        0.1437
@<TRIPOS>BOND
     1     2     1    1
     2     3     2   ar
     3     4     3   ar
     4     5     4   ar
     5     6     5    1
     6     7     6    1
     7     8     7   ar
     8     9     8   ar
     9    10     9   ar
    10    11    10   ar
    11    12    11    1
    12    13    12    1
    13    14    13    1
    14    15    14    1
    15    16    15    2
    16    17    15    1
    17    18    15    1
    18    19    18    1
    19    20    19    2
    20    21    19    1
    21    22    19    1
    22    23    11   ar
    23    23     7   ar
    24    24    23    1
    25    25     5   ar
    26    26    25    1
    27    27    25   ar
    28    27     2   ar
    29     1    28    1
    30     1    29    1
    31     1    30    1
    32     4    31    1
    33     6    32    1
    34     6    33    1
    35     8    34    1
    36     9    35    1
    37    10    36    1
    38    12    37    1
    39    12    38    1
    40    13    39    1
    41    13    40    1
    42    17    41    1
    43    21    42    1
    44    22    43    1
    45    24    44    1
    46    24    45    1
    47    24    46    1
    48    26    47    1
    49    26    48    1
