@<TRIPOS>MOLECULE
3C7R_NMY_A_24
 42 45 0 0 0
SMALL
GASTEIGER
****
Coordinates from PDB:3C7R:A:24 Model:1 without hydrogens
@<TRIPOS>ATOM
      1 C          17.8870   -2.0520    3.5080 C.3     1  UNL1        0.2561
      2 O          18.4750   -1.3680    4.6280 O.3     1  UNL1       -0.3278
      3 C          18.9260   -3.0210    2.9330 C.3     1  UNL1        0.1807
      4 N          19.4390   -3.8860    4.0060 N.3     1  UNL1       -0.1248
      5 C          20.0910   -2.2660    2.2860 C.3     1  UNL1        0.2070
      6 O          20.9300   -3.1890    1.5870 O.3     1  UNL1       -0.2186
      7 C          19.5800   -1.2310    1.2830 C.3     1  UNL1        0.2122
      8 O          20.6940   -0.4520    0.8370 O.3     1  UNL1       -0.2177
      9 C          18.5490   -0.3250    1.9610 C.3     1  UNL1        0.1696
     10 O          17.4720   -1.1130    2.4970 O.3     1  UNL1       -0.3276
     11 C          18.0030    0.6890    0.9540 C.3     1  UNL1        0.1415
     12 C          16.8930   -0.5210    8.4430 C.3     1  UNL1        0.1261
     13 N          16.0730   -0.0200    9.5560 N.3     1  UNL1       -0.1301
     14 C          16.0730   -1.4890    7.5860 C.3     1  UNL1        0.1989
     15 C          16.8750   -2.0150    6.3890 C.3     1  UNL1        0.1779
     16 O          15.9850   -2.7200    5.5080 O.3     1  UNL1       -0.3258
     17 C          17.5190   -0.8860    5.5870 C.3     1  UNL1        0.1649
     18 C          18.2530    0.1330    6.4660 C.3     1  UNL1        0.1230
     19 N          18.6990    1.2540    5.6270 N.3     1  UNL1       -0.1302
     20 C          17.3630    0.6620    7.5930 C.3     1  UNL1        0.0433
     21 C          15.8720   -4.1280    5.7760 C.3     1  UNL1        0.2694
     22 C          14.5880   -4.6560    5.1350 C.3     1  UNL1        0.2373
     23 C          14.9110   -6.1480    5.0960 C.3     1  UNL1        0.1827
     24 C          16.3730   -6.1270    4.6750 C.3     1  UNL1        0.1804
     25 O          16.9190   -4.8740    5.1330 O.3     1  UNL1       -0.3257
     26 C          16.4990   -6.2370    3.1530 C.3     1  UNL1        0.2141
     27 C          15.2180  -10.6940    7.6040 C.3     1  UNL1        0.2122
     28 C          13.8400  -10.0600    7.8070 C.3     1  UNL1        0.2070
     29 C          13.9170   -8.5340    7.7020 C.3     1  UNL1        0.1807
     30 C          14.6340   -8.1210    6.4120 C.3     1  UNL1        0.2561
     31 O          14.7810   -6.6920    6.4180 O.3     1  UNL1       -0.3265
     32 C          15.8400  -10.1770    6.3030 C.3     1  UNL1        0.1696
     33 O          15.9310   -8.7430    6.3520 O.3     1  UNL1       -0.3276
     34 C          17.2310  -10.7740    6.0800 C.3     1  UNL1        0.1415
     35 N          17.1080    1.6260    1.6480 N.3     1  UNL1       -0.1286
     36 O          13.4930   -4.4460    6.0320 O.3     1  UNL1       -0.2150
     37 O          12.9390  -10.5670    6.8190 O.3     1  UNL1       -0.2186
     38 O          16.0610  -10.3820    8.7170 O.3     1  UNL1       -0.2177
     39 O          17.8780   -6.2920    2.7810 O.3     1  UNL1       -0.2176
     40 O          15.6380   -2.5800    8.4060 O.3     1  UNL1       -0.2189
     41 N          18.1290  -10.3870    7.1780 N.3     1  UNL1       -0.1286
     42 N          14.6680   -8.0090    8.8510 N.3     1  UNL1       -0.1248
@<TRIPOS>BOND
     1     1    10    1
     2     1     2    1
     3     1     3    1
     4     3     4    1
     5     3     5    1
     6     5     7    1
     7     5     6    1
     8     7     9    1
     9     7     8    1
    10     9    10    1
    11     9    11    1
    12    11    35    1
    13    12    13    1
    14    12    14    1
    15    12    20    1
    16    14    40    1
    17    14    15    1
    18    15    16    1
    19    15    17    1
    20    17     2    1
    21    17    18    1
    22    18    20    1
    23    18    19    1
    24    21    16    1
    25    21    22    1
    26    21    25    1
    27    22    36    1
    28    22    23    1
    29    23    31    1
    30    23    24    1
    31    24    25    1
    32    24    26    1
    33    26    39    1
    34    27    28    1
    35    27    32    1
    36    27    38    1
    37    28    29    1
    38    28    37    1
    39    29    42    1
    40    29    30    1
    41    30    33    1
    42    30    31    1
    43    32    33    1
    44    32    34    1
    45    34    41    1
