3C7R_NMY_A_24
 OpenBabel10091713573D
Coordinates from PDB:3C7R:A:24 Model:1 without hydrogens
 42 45  0  0  0  0  0  0  0  0999 V2000
   17.8870   -2.0520    3.5080 C   0  0  2  0  0  0  0  0  0  0  0  0
   18.4750   -1.3680    4.6280 O   0  0  0  0  0  0  0  0  0  0  0  0
   18.9260   -3.0210    2.9330 C   0  0  2  0  0  0  0  0  0  0  0  0
   19.4390   -3.8860    4.0060 N   0  0  0  0  0  0  0  0  0  0  0  0
   20.0910   -2.2660    2.2860 C   0  0  1  0  0  0  0  0  0  0  0  0
   20.9300   -3.1890    1.5870 O   0  0  0  0  0  0  0  0  0  0  0  0
   19.5800   -1.2310    1.2830 C   0  0  2  0  0  0  0  0  0  0  0  0
   20.6940   -0.4520    0.8370 O   0  0  0  0  0  0  0  0  0  0  0  0
   18.5490   -0.3250    1.9610 C   0  0  2  0  0  0  0  0  0  0  0  0
   17.4720   -1.1130    2.4970 O   0  0  0  0  0  0  0  0  0  0  0  0
   18.0030    0.6890    0.9540 C   0  0  0  0  0  0  0  0  0  0  0  0
   16.8930   -0.5210    8.4430 C   0  0  1  0  0  0  0  0  0  0  0  0
   16.0730   -0.0200    9.5560 N   0  0  0  0  0  0  0  0  0  0  0  0
   16.0730   -1.4890    7.5860 C   0  0  1  0  0  0  0  0  0  0  0  0
   16.8750   -2.0150    6.3890 C   0  0  1  0  0  0  0  0  0  0  0  0
   15.9850   -2.7200    5.5080 O   0  0  0  0  0  0  0  0  0  0  0  0
   17.5190   -0.8860    5.5870 C   0  0  1  0  0  0  0  0  0  0  0  0
   18.2530    0.1330    6.4660 C   0  0  1  0  0  0  0  0  0  0  0  0
   18.6990    1.2540    5.6270 N   0  0  0  0  0  0  0  0  0  0  0  0
   17.3630    0.6620    7.5930 C   0  0  0  0  0  0  0  0  0  0  0  0
   15.8720   -4.1280    5.7760 C   0  0  1  0  0  0  0  0  0  0  0  0
   14.5880   -4.6560    5.1350 C   0  0  1  0  0  0  0  0  0  0  0  0
   14.9110   -6.1480    5.0960 C   0  0  1  0  0  0  0  0  0  0  0  0
   16.3730   -6.1270    4.6750 C   0  0  2  0  0  0  0  0  0  0  0  0
   16.9190   -4.8740    5.1330 O   0  0  0  0  0  0  0  0  0  0  0  0
   16.4990   -6.2370    3.1530 C   0  0  0  0  0  0  0  0  0  0  0  0
   15.2180  -10.6940    7.6040 C   0  0  1  0  0  0  0  0  0  0  0  0
   13.8400  -10.0600    7.8070 C   0  0  1  0  0  0  0  0  0  0  0  0
   13.9170   -8.5340    7.7020 C   0  0  2  0  0  0  0  0  0  0  0  0
   14.6340   -8.1210    6.4120 C   0  0  1  0  0  0  0  0  0  0  0  0
   14.7810   -6.6920    6.4180 O   0  0  0  0  0  0  0  0  0  0  0  0
   15.8400  -10.1770    6.3030 C   0  0  1  0  0  0  0  0  0  0  0  0
   15.9310   -8.7430    6.3520 O   0  0  0  0  0  0  0  0  0  0  0  0
   17.2310  -10.7740    6.0800 C   0  0  0  0  0  0  0  0  0  0  0  0
   17.1080    1.6260    1.6480 N   0  0  0  0  0  0  0  0  0  0  0  0
   13.4930   -4.4460    6.0320 O   0  0  0  0  0  0  0  0  0  0  0  0
   12.9390  -10.5670    6.8190 O   0  0  0  0  0  0  0  0  0  0  0  0
   16.0610  -10.3820    8.7170 O   0  0  0  0  0  0  0  0  0  0  0  0
   17.8780   -6.2920    2.7810 O   0  0  0  0  0  0  0  0  0  0  0  0
   15.6380   -2.5800    8.4060 O   0  0  0  0  0  0  0  0  0  0  0  0
   18.1290  -10.3870    7.1780 N   0  0  0  0  0  0  0  0  0  0  0  0
   14.6680   -8.0090    8.8510 N   0  0  0  0  0  0  0  0  0  0  0  0
  1 10  1  0  0  0  0
  1  2  1  1  0  0  0
  1  3  1  0  0  0  0
  3  4  1  1  0  0  0
  3  5  1  0  0  0  0
  5  7  1  0  0  0  0
  5  6  1  6  0  0  0
  7  9  1  0  0  0  0
  7  8  1  1  0  0  0
  9 10  1  0  0  0  0
  9 11  1  6  0  0  0
 11 35  1  0  0  0  0
 12 13  1  1  0  0  0
 12 14  1  0  0  0  0
 12 20  1  0  0  0  0
 14 40  1  1  0  0  0
 14 15  1  0  0  0  0
 15 16  1  6  0  0  0
 15 17  1  0  0  0  0
 17  2  1  6  0  0  0
 17 18  1  0  0  0  0
 18 20  1  0  0  0  0
 18 19  1  6  0  0  0
 21 16  1  6  0  0  0
 21 22  1  0  0  0  0
 21 25  1  0  0  0  0
 22 36  1  1  0  0  0
 22 23  1  0  0  0  0
 23 31  1  1  0  0  0
 23 24  1  0  0  0  0
 24 25  1  0  0  0  0
 24 26  1  6  0  0  0
 26 39  1  0  0  0  0
 27 28  1  0  0  0  0
 27 32  1  0  0  0  0
 27 38  1  1  0  0  0
 28 29  1  0  0  0  0
 28 37  1  6  0  0  0
 29 42  1  1  0  0  0
 29 30  1  0  0  0  0
 30 33  1  0  0  0  0
 30 31  1  1  0  0  0
 32 33  1  0  0  0  0
 32 34  1  1  0  0  0
 34 41  1  0  0  0  0
A    1
C1
A    2
O1
A    3
C2
A    4
N2
A    5
C3
A    6
O3
A    7
C4
A    8
O4
A    9
C5
A   10
O5
A   11
C6
A   12
C7
A   13
N7
A   14
C12
A   15
C11
A   16
O11
A   17
C10
A   18
C9
A   19
N9
A   20
C8
A   21
C13
A   22
C14
A   23
C15
A   24
C16
A   25
O16
A   26
C17
A   27
C21
A   28
C20
A   29
C19
A   30
C18
A   31
O18
A   32
C22
A   33
O22
A   34
C23
A   35
N6
A   36
O14
A   37
O20
A   38
O21
A   39
O17
A   40
O12
A   41
N19
A   42
N23
M  END
>  <InstanceId>
3C7R_NMY_A_24

>  <ChemCompId>
NMY

>  <PdbId>
3C7R

>  <ChainId>
A

>  <ResidueNumber>
24

>  <InsertionCode>


>  <Model>
1

>  <AltIds>


>  <MissingHeavyAtoms>
0

>  <ObservedFormula>
C23 N6 O13

>  <Name>
NEOMYCIN

>  <SystematicName>
(2R,3S,4R,5R,6R)-5-amino-2-(aminomethyl)-6-[(1R,2R,3S,4R,6S)-4,6-diamino-2-[(2S,3R,4S,5R)-4-[(2R,3R,4R,5S,6S)-3-amino-6-(aminomethyl)-4,5-dihydroxy-oxan-2-yl]oxy-3-hydroxy-5-(hydroxymethyl)oxolan-2-yl]oxy-3-hydroxy-cyclohexyl]oxy-oxane-3,4-diol

>  <Synonyms>
MYCIFRADIN; NEOMAS; PIMAVECORT; VONAMYCIN

>  <Type>
NON-POLYMER

>  <Formula>
C23 H46 N6 O13

>  <MolecularWeight>
614.644

>  <ModifiedDate>
2011-06-04

>  <Parent>


>  <OneLetterCode>


>  <SubcomponentList>


>  <AmbiguousFlag>


>  <InChI>
InChI=1S/C23H46N6O13/c24-2-7-13(32)15(34)10(28)21(37-7)40-18-6(27)1-5(26)12(31)20(18)42-23-17(36)19(9(4-30)39-23)41-22-11(29)16(35)14(33)8(3-25)38-22/h5-23,30-36H,1-4,24-29H2/t5-,6+,7-,8+,9-,10-,11-,12+,13-,14-,15-,16-,17-,18-,19-,20-,21-,22-,23+/m1/s1

>  <InChIKey>
PGBHMTALBVVCIT-VCIWKGPPSA-N

>  <SMILES>
C1[C@H]([C@@H]([C@H]([C@@H]([C@H]1N)O[C@@H]2[C@@H]([C@H]([C@@H]([C@H](O2)CN)O)O)N)O[C@H]3[C@@H]([C@@H]([C@H](O3)CO)O[C@@H]4[C@@H]([C@H]([C@@H]([C@@H](O4)CN)O)O)N)O)O)N

$$$$
