3C7R_NMY_A_24
 OpenBabel10091713573D
Coordinates from PDB:3C7R:A:24 Model:1 without hydrogens
 88 91  0  0  1  0  0  0  0  0999 V2000
   17.8870   -2.0520    3.5080 C   0  0  2  0  0  0  0  0  0  0  0  0
   18.4750   -1.3680    4.6280 O   0  0  0  0  0  0  0  0  0  0  0  0
   18.9260   -3.0210    2.9330 C   0  0  2  0  0  0  0  0  0  0  0  0
   19.4390   -3.8860    4.0060 N   0  0  0  0  0  0  0  0  0  0  0  0
   20.0910   -2.2660    2.2860 C   0  0  1  0  0  0  0  0  0  0  0  0
   20.9300   -3.1890    1.5870 O   0  0  0  0  0  0  0  0  0  0  0  0
   19.5800   -1.2310    1.2830 C   0  0  2  0  0  0  0  0  0  0  0  0
   20.6940   -0.4520    0.8370 O   0  0  0  0  0  0  0  0  0  0  0  0
   18.5490   -0.3250    1.9610 C   0  0  2  0  0  0  0  0  0  0  0  0
   17.4720   -1.1130    2.4970 O   0  0  0  0  0  0  0  0  0  0  0  0
   18.0030    0.6890    0.9540 C   0  0  0  0  0  0  0  0  0  0  0  0
   16.8930   -0.5210    8.4430 C   0  0  1  0  0  0  0  0  0  0  0  0
   16.0730   -0.0200    9.5560 N   0  0  0  0  0  0  0  0  0  0  0  0
   16.0730   -1.4890    7.5860 C   0  0  1  0  0  0  0  0  0  0  0  0
   16.8750   -2.0150    6.3890 C   0  0  1  0  0  0  0  0  0  0  0  0
   15.9850   -2.7200    5.5080 O   0  0  0  0  0  0  0  0  0  0  0  0
   17.5190   -0.8860    5.5870 C   0  0  1  0  0  0  0  0  0  0  0  0
   18.2530    0.1330    6.4660 C   0  0  1  0  0  0  0  0  0  0  0  0
   18.6990    1.2540    5.6270 N   0  0  0  0  0  0  0  0  0  0  0  0
   17.3630    0.6620    7.5930 C   0  0  0  0  0  0  0  0  0  0  0  0
   15.8720   -4.1280    5.7760 C   0  0  1  0  0  0  0  0  0  0  0  0
   14.5880   -4.6560    5.1350 C   0  0  1  0  0  0  0  0  0  0  0  0
   14.9110   -6.1480    5.0960 C   0  0  1  0  0  0  0  0  0  0  0  0
   16.3730   -6.1270    4.6750 C   0  0  2  0  0  0  0  0  0  0  0  0
   16.9190   -4.8740    5.1330 O   0  0  0  0  0  0  0  0  0  0  0  0
   16.4990   -6.2370    3.1530 C   0  0  0  0  0  0  0  0  0  0  0  0
   15.2180  -10.6940    7.6040 C   0  0  1  0  0  0  0  0  0  0  0  0
   13.8400  -10.0600    7.8070 C   0  0  1  0  0  0  0  0  0  0  0  0
   13.9170   -8.5340    7.7020 C   0  0  2  0  0  0  0  0  0  0  0  0
   14.6340   -8.1210    6.4120 C   0  0  1  0  0  0  0  0  0  0  0  0
   14.7810   -6.6920    6.4180 O   0  0  0  0  0  0  0  0  0  0  0  0
   15.8400  -10.1770    6.3030 C   0  0  1  0  0  0  0  0  0  0  0  0
   15.9310   -8.7430    6.3520 O   0  0  0  0  0  0  0  0  0  0  0  0
   17.2310  -10.7740    6.0800 C   0  0  0  0  0  0  0  0  0  0  0  0
   17.1080    1.6260    1.6480 N   0  0  0  0  0  0  0  0  0  0  0  0
   13.4930   -4.4460    6.0320 O   0  0  0  0  0  0  0  0  0  0  0  0
   12.9390  -10.5670    6.8190 O   0  0  0  0  0  0  0  0  0  0  0  0
   16.0610  -10.3820    8.7170 O   0  0  0  0  0  0  0  0  0  0  0  0
   17.8780   -6.2920    2.7810 O   0  0  0  0  0  0  0  0  0  0  0  0
   15.6380   -2.5800    8.4060 O   0  0  0  0  0  0  0  0  0  0  0  0
   18.1290  -10.3870    7.1780 N   0  0  0  0  0  0  0  0  0  0  0  0
   14.6680   -8.0090    8.8510 N   0  0  0  0  0  0  0  0  0  0  0  0
   17.0201   -2.5894    3.8314 H   0  0  0  0  0  0  0  0  0  0  0  0
   18.4498   -3.6136    2.1800 H   0  0  0  0  0  0  0  0  0  0  0  0
   19.8908   -3.3125    4.7183 H   0  0  0  0  0  0  0  0  0  0  0  0
   20.1162   -4.5430    3.6186 H   0  0  0  0  0  0  0  0  0  0  0  0
   20.6365   -1.7703    3.0616 H   0  0  0  0  0  0  0  0  0  0  0  0
   20.4178   -3.6271    0.8894 H   0  0  0  0  0  0  0  0  0  0  0  0
   19.1154   -1.7170    0.4506 H   0  0  0  0  0  0  0  0  0  0  0  0
   21.1086   -0.0156    1.5976 H   0  0  0  0  0  0  0  0  0  0  0  0
   19.0249    0.2000    2.7628 H   0  0  0  0  0  0  0  0  0  0  0  0
   17.4596    0.1758    0.1883 H   0  0  0  0  0  0  0  0  0  0  0  0
   18.8142    1.2282    0.5112 H   0  0  0  0  0  0  0  0  0  0  0  0
   17.7436   -1.0417    8.8305 H   0  0  0  0  0  0  0  0  0  0  0  0
   15.2627    0.4761    9.1849 H   0  0  0  0  0  0  0  0  0  0  0  0
   16.6284    0.6161   10.1281 H   0  0  0  0  0  0  0  0  0  0  0  0
   15.2294   -0.9612    7.1928 H   0  0  0  0  0  0  0  0  0  0  0  0
   17.6471   -2.6489    6.7724 H   0  0  0  0  0  0  0  0  0  0  0  0
   16.6931   -0.4174    5.0938 H   0  0  0  0  0  0  0  0  0  0  0  0
   19.0900   -0.3577    6.9171 H   0  0  0  0  0  0  0  0  0  0  0  0
   17.8879    1.7079    5.2068 H   0  0  0  0  0  0  0  0  0  0  0  0
   19.3125    0.9046    4.8908 H   0  0  0  0  0  0  0  0  0  0  0  0
   17.9195    1.3440    8.2014 H   0  0  0  0  0  0  0  0  0  0  0  0
   16.5183    1.1735    7.1811 H   0  0  0  0  0  0  0  0  0  0  0  0
   15.9050   -4.2442    6.8392 H   0  0  0  0  0  0  0  0  0  0  0  0
   14.3254   -4.2107    4.1981 H   0  0  0  0  0  0  0  0  0  0  0  0
   14.2823   -6.7319    4.4568 H   0  0  0  0  0  0  0  0  0  0  0  0
   16.9016   -6.9558    5.0976 H   0  0  0  0  0  0  0  0  0  0  0  0
   16.0424   -5.3837    2.6967 H   0  0  0  0  0  0  0  0  0  0  0  0
   16.0096   -7.1294    2.8229 H   0  0  0  0  0  0  0  0  0  0  0  0
   15.1141  -11.7568    7.5368 H   0  0  0  0  0  0  0  0  0  0  0  0
   13.4881  -10.3098    8.7861 H   0  0  0  0  0  0  0  0  0  0  0  0
   12.9229   -8.1383    7.6927 H   0  0  0  0  0  0  0  0  0  0  0  0
   14.0666   -8.4317    5.5597 H   0  0  0  0  0  0  0  0  0  0  0  0
   15.2141  -10.4751    5.4879 H   0  0  0  0  0  0  0  0  0  0  0  0
   17.6273  -10.4119    5.1544 H   0  0  0  0  0  0  0  0  0  0  0  0
   17.1536  -11.8408    6.0504 H   0  0  0  0  0  0  0  0  0  0  0  0
   16.3357    1.1097    2.0692 H   0  0  0  0  0  0  0  0  0  0  0  0
   16.7400    2.3029    0.9796 H   0  0  0  0  0  0  0  0  0  0  0  0
   13.7009   -4.8397    6.8938 H   0  0  0  0  0  0  0  0  0  0  0  0
   13.2653  -10.3364    5.9351 H   0  0  0  0  0  0  0  0  0  0  0  0
   16.1616   -9.4198    8.7867 H   0  0  0  0  0  0  0  0  0  0  0  0
   18.3256   -5.4845    3.0785 H   0  0  0  0  0  0  0  0  0  0  0  0
   16.4111   -3.0498    8.7559 H   0  0  0  0  0  0  0  0  0  0  0  0
   18.2069   -9.3705    7.2113 H   0  0  0  0  0  0  0  0  0  0  0  0
   19.0513  -10.7938    7.0223 H   0  0  0  0  0  0  0  0  0  0  0  0
   15.6120   -8.3953    8.8453 H   0  0  0  0  0  0  0  0  0  0  0  0
   14.1968   -8.2754    9.7156 H   0  0  0  0  0  0  0  0  0  0  0  0
  1 10  1  0  0  0  0
  1  2  1  0  0  0  0
  1  3  1  0  0  0  0
  1 43  1  1  0  0  0
  2 17  1  0  0  0  0
  3  4  1  0  0  0  0
  3  5  1  0  0  0  0
  3 44  1  6  0  0  0
  4 45  1  0  0  0  0
  4 46  1  0  0  0  0
  5  7  1  0  0  0  0
  5  6  1  0  0  0  0
  5 47  1  1  0  0  0
  6 48  1  0  0  0  0
  7  9  1  0  0  0  0
  7  8  1  0  0  0  0
  7 49  1  6  0  0  0
  8 50  1  0  0  0  0
  9 10  1  0  0  0  0
  9 11  1  0  0  0  0
  9 51  1  1  0  0  0
 11 35  1  0  0  0  0
 11 52  1  0  0  0  0
 11 53  1  0  0  0  0
 12 13  1  0  0  0  0
 12 14  1  0  0  0  0
 12 20  1  0  0  0  0
 12 54  1  1  0  0  0
 13 55  1  0  0  0  0
 13 56  1  0  0  0  0
 14 40  1  0  0  0  0
 14 15  1  0  0  0  0
 14 57  1  6  0  0  0
 15 16  1  0  0  0  0
 15 17  1  0  0  0  0
 15 58  1  1  0  0  0
 16 21  1  0  0  0  0
 17 18  1  0  0  0  0
 17 59  1  6  0  0  0
 18 20  1  0  0  0  0
 18 19  1  0  0  0  0
 18 60  1  1  0  0  0
 19 61  1  0  0  0  0
 19 62  1  0  0  0  0
 20 63  1  0  0  0  0
 20 64  1  0  0  0  0
 21 22  1  0  0  0  0
 21 25  1  0  0  0  0
 21 65  1  1  0  0  0
 22 36  1  0  0  0  0
 22 23  1  0  0  0  0
 22 66  1  6  0  0  0
 23 31  1  0  0  0  0
 23 24  1  0  0  0  0
 23 67  1  6  0  0  0
 24 25  1  0  0  0  0
 24 26  1  0  0  0  0
 24 68  1  1  0  0  0
 26 39  1  0  0  0  0
 26 69  1  0  0  0  0
 26 70  1  0  0  0  0
 27 28  1  0  0  0  0
 27 32  1  0  0  0  0
 27 38  1  0  0  0  0
 27 71  1  6  0  0  0
 28 29  1  0  0  0  0
 28 37  1  0  0  0  0
 28 72  1  1  0  0  0
 29 42  1  0  0  0  0
 29 30  1  0  0  0  0
 29 73  1  1  0  0  0
 30 33  1  0  0  0  0
 30 31  1  0  0  0  0
 30 74  1  6  0  0  0
 32 33  1  0  0  0  0
 32 34  1  0  0  0  0
 32 75  1  6  0  0  0
 34 41  1  0  0  0  0
 34 76  1  0  0  0  0
 34 77  1  0  0  0  0
 35 78  1  0  0  0  0
 35 79  1  0  0  0  0
 36 80  1  0  0  0  0
 37 81  1  0  0  0  0
 38 82  1  0  0  0  0
 39 83  1  0  0  0  0
 40 84  1  0  0  0  0
 41 85  1  0  0  0  0
 41 86  1  0  0  0  0
 42 87  1  0  0  0  0
 42 88  1  0  0  0  0
M  END
$$$$
