REMARK  9 active torsions:
REMARK  status: ('A' for Active; 'I' for Inactive)
REMARK    1  A    between atoms: C_1  and  O_2 
REMARK    2  A    between atoms: C_31  and  O_2 
REMARK    3  A    between atoms: C_9  and  C_11 
REMARK    4  A    between atoms: C_13  and  C_23 
REMARK    5  A    between atoms: C_15  and  O_16 
REMARK    6  A    between atoms: C_38  and  O_16 
REMARK    7  A    between atoms: C_29  and  O_30 
REMARK    8  A    between atoms: C_35  and  O_30 
REMARK    9  A    between atoms: C_39  and  C_41 
ROOT
ATOM      1  C   UNL d   1       0.234  -5.603  41.991  0.00  0.00     0.337 C 
ATOM      2  N   UNL d   1      -0.524  -6.518  41.118  0.00  0.00     0.619 N 
ATOM      3  C   UNL d   1       1.002  -4.515  41.181  0.00  0.00     0.218 C 
ATOM      4  O   UNL d   1       1.915  -5.124  40.271  0.00  0.00    -0.218 OA
ATOM      5  C   UNL d   1       1.804  -3.570  42.123  0.00  0.00     0.180 C 
ATOM      6  C   UNL d   1       0.911  -2.980  43.263  0.00  0.00     0.184 C 
ATOM      7  C   UNL d   1       0.105  -4.076  44.031  0.00  0.00     0.333 C 
ATOM      8  N   UNL d   1      -0.804  -3.480  45.035  0.00  0.00     0.619 N 
ATOM      9  C   UNL d   1      -0.710  -4.949  43.042  0.00  0.00     0.084 C 
ENDROOT
BRANCH   5  10
ATOM     10  O   UNL d   1       2.358  -2.480  41.328  0.00  0.00    -0.326 OA
BRANCH  10  11
ATOM     11  C   UNL d   1       3.805  -2.264  41.291  0.00  0.00     0.270 C 
ATOM     12  C   UNL d   1       4.258  -2.209  39.820  0.00  0.00     0.238 C 
ATOM     13  O   UNL d   1       5.628  -2.579  39.692  0.00  0.00    -0.215 OA
ATOM     14  C   UNL d   1       4.032  -0.713  39.554  0.00  0.00     0.183 C 
ATOM     15  C   UNL d   1       4.576  -0.072  40.820  0.00  0.00     0.181 C 
ATOM     16  O   UNL d   1       4.131  -0.969  41.826  0.00  0.00    -0.326 OA
BRANCH  14  17
ATOM     17  O   UNL d   1       4.697  -0.175  38.378  0.00  0.00    -0.326 OA
BRANCH  17  18
ATOM     18  C   UNL d   1       3.778   0.397  37.415  0.00  0.00     0.277 C 
ATOM     19  O   UNL d   1       2.939   1.429  38.035  0.00  0.00    -0.327 OA
ATOM     20  C   UNL d   1       1.858   1.932  37.203  0.00  0.00     0.190 C 
ATOM     21  C   UNL d   1       2.495   2.699  36.017  0.00  0.00     0.214 C 
ATOM     22  C   UNL d   1       3.467   1.762  35.247  0.00  0.00     0.227 C 
ATOM     23  O   UNL d   1       3.212   3.837  36.492  0.00  0.00    -0.218 OA
ATOM     24  C   UNL d   1       4.464   0.952  36.139  0.00  0.00     0.390 C 
ATOM     25  O   UNL d   1       2.696   0.846  34.473  0.00  0.00    -0.218 OA
ATOM     26  N   UNL d   1       5.662   1.766  36.441  0.00  0.00     0.624 N 
BRANCH  20  27
ATOM     27  C   UNL d   1       0.871   2.775  38.032  0.00  0.00     0.370 C 
ATOM     28  N   UNL d   1       0.241   2.006  39.123  0.00  0.00     0.621 N 
ENDBRANCH  20  27
ENDBRANCH  17  18
ENDBRANCH  14  17
BRANCH  15  29
ATOM     29  C   UNL d   1       4.065   1.346  41.106  0.00  0.00     0.214 C 
ATOM     30  O   UNL d   1       4.693   1.865  42.269  0.00  0.00    -0.218 OA
ENDBRANCH  15  29
ENDBRANCH  10  11
ENDBRANCH   5  10
BRANCH   6  31
ATOM     31  O   UNL d   1       1.764  -2.297  44.213  0.00  0.00    -0.327 OA
BRANCH  31  32
ATOM     32  C   UNL d   1       1.980  -0.879  43.999  0.00  0.00     0.277 C 
ATOM     33  C   UNL d   1       3.316  -0.407  44.685  0.00  0.00     0.390 C 
ATOM     34  N   UNL d   1       4.453  -1.352  44.535  0.00  0.00     0.624 N 
ATOM     35  C   UNL d   1       3.131  -0.192  46.199  0.00  0.00     0.227 C 
ATOM     36  O   UNL d   1       4.258   0.481  46.756  0.00  0.00    -0.218 OA
ATOM     37  C   UNL d   1       1.858   0.617  46.490  0.00  0.00     0.214 C 
ATOM     38  O   UNL d   1       1.727   0.843  47.890  0.00  0.00    -0.218 OA
ATOM     39  C   UNL d   1       0.618  -0.077  45.884  0.00  0.00     0.184 C 
ATOM     40  O   UNL d   1       0.822  -0.127  44.456  0.00  0.00    -0.326 OA
BRANCH  39  41
ATOM     41  C   UNL d   1      -0.699   0.652  46.145  0.00  0.00     0.214 C 
ATOM     42  O   UNL d   1      -1.035   0.630  47.526  0.00  0.00    -0.218 OA
ENDBRANCH  39  41
ENDBRANCH  31  32
ENDBRANCH   6  31
TORSDOF 9
