ligands/ligand.pdb
 OpenBabel10091713573D

 87 90  0  0  1  0  0  0  0  0999 V2000
    1.9800   -0.8790   43.9990 C   0  0  2  0  0  0  0  0  0  0  0  0
    1.7640   -2.2970   44.2130 O   0  0  0  0  0  0  0  0  0  0  0  0
    3.3160   -0.4070   44.6850 C   0  0  2  0  0  0  0  0  0  0  0  0
    4.4530   -1.3520   44.5350 N   0  0  0  0  0  0  0  0  0  0  0  0
    3.1310   -0.1920   46.1990 C   0  0  1  0  0  0  0  0  0  0  0  0
    4.2580    0.4810   46.7560 O   0  0  0  0  0  0  0  0  0  0  0  0
    1.8580    0.6170   46.4900 C   0  0  2  0  0  0  0  0  0  0  0  0
    1.7270    0.8430   47.8900 O   0  0  0  0  0  0  0  0  0  0  0  0
    0.6180   -0.0770   45.8840 C   0  0  2  0  0  0  0  0  0  0  0  0
    0.8220   -0.1270   44.4560 O   0  0  0  0  0  0  0  0  0  0  0  0
   -0.6990    0.6520   46.1450 C   0  0  0  0  0  0  0  0  0  0  0  0
   -1.0350    0.6300   47.5260 O   0  0  0  0  0  0  0  0  0  0  0  0
    1.8580    1.9320   37.2030 C   0  0  2  0  0  0  0  0  0  0  0  0
    2.9390    1.4290   38.0350 O   0  0  0  0  0  0  0  0  0  0  0  0
    3.7780    0.3970   37.4150 C   0  0  2  0  0  0  0  0  0  0  0  0
    4.6970   -0.1750   38.3780 O   0  0  0  0  0  0  0  0  0  0  0  0
    4.4640    0.9520   36.1390 C   0  0  2  0  0  0  0  0  0  0  0  0
    5.6620    1.7660   36.4410 N   0  0  0  0  0  0  0  0  0  0  0  0
    3.4670    1.7620   35.2470 C   0  0  1  0  0  0  0  0  0  0  0  0
    2.6960    0.8460   34.4730 O   0  0  0  0  0  0  0  0  0  0  0  0
    2.4950    2.6990   36.0170 C   0  0  2  0  0  0  0  0  0  0  0  0
    3.2120    3.8370   36.4920 O   0  0  0  0  0  0  0  0  0  0  0  0
    0.8710    2.7750   38.0320 C   0  0  0  0  0  0  0  0  0  0  0  0
    0.2410    2.0060   39.1230 N   0  0  0  0  0  0  0  0  0  0  0  0
    0.2340   -5.6030   41.9910 C   0  0  1  0  0  0  0  0  0  0  0  0
   -0.5240   -6.5180   41.1180 N   0  0  0  0  0  0  0  0  0  0  0  0
    1.0020   -4.5150   41.1810 C   0  0  2  0  0  0  0  0  0  0  0  0
    1.9150   -5.1240   40.2710 O   0  0  0  0  0  0  0  0  0  0  0  0
    1.8040   -3.5700   42.1230 C   0  0  1  0  0  0  0  0  0  0  0  0
    2.3580   -2.4800   41.3280 O   0  0  0  0  0  0  0  0  0  0  0  0
    0.9110   -2.9800   43.2630 C   0  0  1  0  0  0  0  0  0  0  0  0
    0.1050   -4.0760   44.0310 C   0  0  1  0  0  0  0  0  0  0  0  0
   -0.8040   -3.4800   45.0350 N   0  0  0  0  0  0  0  0  0  0  0  0
   -0.7100   -4.9490   43.0420 C   0  0  0  0  0  0  0  0  0  0  0  0
    3.8050   -2.2640   41.2910 C   0  0  1  0  0  0  0  0  0  0  0  0
    4.2580   -2.2090   39.8200 C   0  0  2  0  0  0  0  0  0  0  0  0
    5.6280   -2.5790   39.6920 O   0  0  0  0  0  0  0  0  0  0  0  0
    4.0320   -0.7130   39.5540 C   0  0  1  0  0  0  0  0  0  0  0  0
    4.5760   -0.0720   40.8200 C   0  0  2  0  0  0  0  0  0  0  0  0
    4.1310   -0.9690   41.8260 O   0  0  0  0  0  0  0  0  0  0  0  0
    4.0650    1.3460   41.1060 C   0  0  0  0  0  0  0  0  0  0  0  0
    4.6930    1.8650   42.2690 O   0  0  0  0  0  0  0  0  0  0  0  0
    2.0926   -0.6912   42.9516 H   0  0  0  0  0  0  0  0  0  0  0  0
    3.5490    0.5040   44.1744 H   0  0  0  0  0  0  0  0  0  0  0  0
    4.2373   -2.2231   45.0197 H   0  0  0  0  0  0  0  0  0  0  0  0
    5.2942   -0.9384   44.9372 H   0  0  0  0  0  0  0  0  0  0  0  0
    3.0391   -1.1572   46.6516 H   0  0  0  0  0  0  0  0  0  0  0  0
    4.3454    1.3569   46.3486 H   0  0  0  0  0  0  0  0  0  0  0  0
    1.9353    1.5749   46.0196 H   0  0  0  0  0  0  0  0  0  0  0  0
    1.6542   -0.0082   48.3495 H   0  0  0  0  0  0  0  0  0  0  0  0
    0.5296   -1.0391   46.3438 H   0  0  0  0  0  0  0  0  0  0  0  0
   -1.4783    0.1743   45.5888 H   0  0  0  0  0  0  0  0  0  0  0  0
   -0.5876    1.6716   45.8401 H   0  0  0  0  0  0  0  0  0  0  0  0
   -1.1398   -0.2888   47.8187 H   0  0  0  0  0  0  0  0  0  0  0  0
    1.2679    1.1322   36.8067 H   0  0  0  0  0  0  0  0  0  0  0  0
    3.1620   -0.4161   37.0920 H   0  0  0  0  0  0  0  0  0  0  0  0
    4.7899    0.0945   35.5882 H   0  0  0  0  0  0  0  0  0  0  0  0
    5.3860    2.5948   36.9676 H   0  0  0  0  0  0  0  0  0  0  0  0
    6.1086    2.0502   35.5691 H   0  0  0  0  0  0  0  0  0  0  0  0
    4.0756    2.4039   34.6450 H   0  0  0  0  0  0  0  0  0  0  0  0
    2.1648    0.2902   35.0644 H   0  0  0  0  0  0  0  0  0  0  0  0
    1.7152    3.0254   35.3611 H   0  0  0  0  0  0  0  0  0  0  0  0
    3.9207    3.5472   37.0875 H   0  0  0  0  0  0  0  0  0  0  0  0
    0.1029    3.1396   37.3825 H   0  0  0  0  0  0  0  0  0  0  0  0
    1.4247    3.5745   38.4783 H   0  0  0  0  0  0  0  0  0  0  0  0
   -0.2961    1.2338   38.7285 H   0  0  0  0  0  0  0  0  0  0  0  0
   -0.3804    2.6160   39.6541 H   0  0  0  0  0  0  0  0  0  0  0  0
    0.9703   -6.1865   42.5031 H   0  0  0  0  0  0  0  0  0  0  0  0
   -1.2375   -5.9927   40.6126 H   0  0  0  0  0  0  0  0  0  0  0  0
   -0.9704   -7.2380   41.6860 H   0  0  0  0  0  0  0  0  0  0  0  0
    0.2722   -3.9445   40.6454 H   0  0  0  0  0  0  0  0  0  0  0  0
    2.5713   -5.6380   40.7669 H   0  0  0  0  0  0  0  0  0  0  0  0
    2.5818   -4.1400   42.5867 H   0  0  0  0  0  0  0  0  0  0  0  0
    0.2070   -2.3166   42.8056 H   0  0  0  0  0  0  0  0  0  0  0  0
    0.8144   -4.6915   44.5436 H   0  0  0  0  0  0  0  0  0  0  0  0
   -1.4891   -2.8885   44.5647 H   0  0  0  0  0  0  0  0  0  0  0  0
   -0.2631   -2.9175   45.6919 H   0  0  0  0  0  0  0  0  0  0  0  0
   -1.2180   -5.7175   43.5862 H   0  0  0  0  0  0  0  0  0  0  0  0
   -1.4185   -4.3287   42.5339 H   0  0  0  0  0  0  0  0  0  0  0  0
    4.2716   -3.0500   41.8473 H   0  0  0  0  0  0  0  0  0  0  0  0
    3.7519   -2.8690   39.1468 H   0  0  0  0  0  0  0  0  0  0  0  0
    6.1687   -2.0240   40.2755 H   0  0  0  0  0  0  0  0  0  0  0  0
    3.0014   -0.5180   39.3425 H   0  0  0  0  0  0  0  0  0  0  0  0
    5.6352    0.0645   40.7545 H   0  0  0  0  0  0  0  0  0  0  0  0
    3.0063    1.3168   41.2585 H   0  0  0  0  0  0  0  0  0  0  0  0
    4.2952    1.9763   40.2725 H   0  0  0  0  0  0  0  0  0  0  0  0
    4.4875    1.2972   43.0281 H   0  0  0  0  0  0  0  0  0  0  0  0
  1  2  1  0  0  0  0
  1  3  1  0  0  0  0
  1 10  1  0  0  0  0
  1 43  1  6  0  0  0
  3  4  1  0  0  0  0
  3  5  1  0  0  0  0
  3 44  1  6  0  0  0
  4 45  1  0  0  0  0
  4 46  1  0  0  0  0
  5  6  1  0  0  0  0
  5  7  1  0  0  0  0
  5 47  1  1  0  0  0
  6 48  1  0  0  0  0
  7  8  1  0  0  0  0
  7  9  1  0  0  0  0
  7 49  1  6  0  0  0
  8 50  1  0  0  0  0
  9 10  1  0  0  0  0
  9 11  1  0  0  0  0
  9 51  1  1  0  0  0
 11 12  1  0  0  0  0
 11 52  1  0  0  0  0
 11 53  1  0  0  0  0
 12 54  1  0  0  0  0
 13 14  1  0  0  0  0
 13 21  1  0  0  0  0
 13 23  1  0  0  0  0
 13 55  1  6  0  0  0
 14 15  1  0  0  0  0
 15 16  1  0  0  0  0
 15 17  1  0  0  0  0
 15 56  1  6  0  0  0
 17 18  1  0  0  0  0
 17 19  1  0  0  0  0
 17 57  1  6  0  0  0
 18 58  1  0  0  0  0
 18 59  1  0  0  0  0
 19 20  1  0  0  0  0
 19 21  1  0  0  0  0
 19 60  1  6  0  0  0
 20 61  1  0  0  0  0
 21 22  1  0  0  0  0
 21 62  1  6  0  0  0
 22 63  1  0  0  0  0
 23 24  1  0  0  0  0
 23 64  1  0  0  0  0
 23 65  1  0  0  0  0
 24 66  1  0  0  0  0
 24 67  1  0  0  0  0
 25 26  1  0  0  0  0
 25 27  1  0  0  0  0
 25 34  1  0  0  0  0
 25 68  1  1  0  0  0
 26 69  1  0  0  0  0
 26 70  1  0  0  0  0
 27 28  1  0  0  0  0
 27 29  1  0  0  0  0
 27 71  1  6  0  0  0
 28 72  1  0  0  0  0
 29 30  1  0  0  0  0
 29 31  1  0  0  0  0
 29 73  1  1  0  0  0
 31 32  1  0  0  0  0
 31  2  1  0  0  0  0
 31 74  1  6  0  0  0
 32 33  1  0  0  0  0
 32 34  1  0  0  0  0
 32 75  1  1  0  0  0
 33 76  1  0  0  0  0
 33 77  1  0  0  0  0
 34 78  1  0  0  0  0
 34 79  1  0  0  0  0
 35 36  1  0  0  0  0
 35 40  1  0  0  0  0
 35 30  1  0  0  0  0
 35 80  1  1  0  0  0
 36 37  1  0  0  0  0
 36 38  1  0  0  0  0
 36 81  1  6  0  0  0
 37 82  1  0  0  0  0
 38 39  1  0  0  0  0
 38 16  1  0  0  0  0
 38 83  1  6  0  0  0
 39 40  1  0  0  0  0
 39 41  1  0  0  0  0
 39 84  1  6  0  0  0
 41 42  1  0  0  0  0
 41 85  1  0  0  0  0
 41 86  1  0  0  0  0
 42 87  1  0  0  0  0
M  END
>  <HEADER>
Generated with yapdb_parser, version: unknown (https://github.com/m4rx9/rna-pdb-tools) Wed Jan 27 17:52:25 2016

$$$$
