@<TRIPOS>MOLECULE
ligands/ligand.pdb
 42 45 0 0 0
SMALL
GASTEIGER

@<TRIPOS>ATOM
      1 C           1.9800   -0.8790   43.9990 C.3     1  UNL1        0.2561
      2 O           1.7640   -2.2970   44.2130 O.3     1  UNL1       -0.3278
      3 C           3.3160   -0.4070   44.6850 C.3     1  UNL1        0.1807
      4 N           4.4530   -1.3520   44.5350 N.3     1  UNL1       -0.1248
      5 C           3.1310   -0.1920   46.1990 C.3     1  UNL1        0.2070
      6 O           4.2580    0.4810   46.7560 O.3     1  UNL1       -0.2186
      7 C           1.8580    0.6170   46.4900 C.3     1  UNL1        0.2133
      8 O           1.7270    0.8430   47.8900 O.3     1  UNL1       -0.2176
      9 C           0.6180   -0.0770   45.8840 C.3     1  UNL1        0.1834
     10 O           0.8220   -0.1270   44.4560 O.3     1  UNL1       -0.3264
     11 C          -0.6990    0.6520   46.1450 C.3     1  UNL1        0.2142
     12 O          -1.0350    0.6300   47.5260 O.3     1  UNL1       -0.2176
     13 C           1.8580    1.9320   37.2030 C.3     1  UNL1        0.1696
     14 O           2.9390    1.4290   38.0350 O.3     1  UNL1       -0.3276
     15 C           3.7780    0.3970   37.4150 C.3     1  UNL1        0.2561
     16 O           4.6970   -0.1750   38.3780 O.3     1  UNL1       -0.3265
     17 C           4.4640    0.9520   36.1390 C.3     1  UNL1        0.1807
     18 N           5.6620    1.7660   36.4410 N.3     1  UNL1       -0.1248
     19 C           3.4670    1.7620   35.2470 C.3     1  UNL1        0.2070
     20 O           2.6960    0.8460   34.4730 O.3     1  UNL1       -0.2186
     21 C           2.4950    2.6990   36.0170 C.3     1  UNL1        0.2122
     22 O           3.2120    3.8370   36.4920 O.3     1  UNL1       -0.2177
     23 C           0.8710    2.7750   38.0320 C.3     1  UNL1        0.1415
     24 N           0.2410    2.0060   39.1230 N.3     1  UNL1       -0.1286
     25 C           0.2340   -5.6030   41.9910 C.3     1  UNL1        0.1261
     26 N          -0.5240   -6.5180   41.1180 N.3     1  UNL1       -0.1301
     27 C           1.0020   -4.5150   41.1810 C.3     1  UNL1        0.1989
     28 O           1.9150   -5.1240   40.2710 O.3     1  UNL1       -0.2189
     29 C           1.8040   -3.5700   42.1230 C.3     1  UNL1        0.1779
     30 O           2.3580   -2.4800   41.3280 O.3     1  UNL1       -0.3258
     31 C           0.9110   -2.9800   43.2630 C.3     1  UNL1        0.1649
     32 C           0.1050   -4.0760   44.0310 C.3     1  UNL1        0.1230
     33 N          -0.8040   -3.4800   45.0350 N.3     1  UNL1       -0.1302
     34 C          -0.7100   -4.9490   43.0420 C.3     1  UNL1        0.0433
     35 C           3.8050   -2.2640   41.2910 C.3     1  UNL1        0.2694
     36 C           4.2580   -2.2090   39.8200 C.3     1  UNL1        0.2373
     37 O           5.6280   -2.5790   39.6920 O.3     1  UNL1       -0.2150
     38 C           4.0320   -0.7130   39.5540 C.3     1  UNL1        0.1827
     39 C           4.5760   -0.0720   40.8200 C.3     1  UNL1        0.1804
     40 O           4.1310   -0.9690   41.8260 O.3     1  UNL1       -0.3257
     41 C           4.0650    1.3460   41.1060 C.3     1  UNL1        0.2141
     42 O           4.6930    1.8650   42.2690 O.3     1  UNL1       -0.2176
@<TRIPOS>BOND
     1     1     2    1
     2     1     3    1
     3     1    10    1
     4     3     4    1
     5     3     5    1
     6     5     6    1
     7     5     7    1
     8     7     8    1
     9     7     9    1
    10     9    10    1
    11     9    11    1
    12    11    12    1
    13    13    14    1
    14    13    21    1
    15    13    23    1
    16    14    15    1
    17    15    16    1
    18    15    17    1
    19    17    18    1
    20    17    19    1
    21    19    20    1
    22    19    21    1
    23    21    22    1
    24    23    24    1
    25    25    26    1
    26    25    27    1
    27    25    34    1
    28    27    28    1
    29    27    29    1
    30    29    30    1
    31    29    31    1
    32    31    32    1
    33    31     2    1
    34    32    33    1
    35    32    34    1
    36    35    36    1
    37    35    40    1
    38    35    30    1
    39    36    37    1
    40    36    38    1
    41    38    39    1
    42    38    16    1
    43    39    40    1
    44    39    41    1
    45    41    42    1
