ligands/ligand.pdb
 OpenBabel10091713573D

 42 45  0  0  1  0  0  0  0  0999 V2000
    1.9800   -0.8790   43.9990 C   0  0  2  0  0  0  0  0  0  0  0  0
    1.7640   -2.2970   44.2130 O   0  0  0  0  0  0  0  0  0  0  0  0
    3.3160   -0.4070   44.6850 C   0  0  2  0  0  0  0  0  0  0  0  0
    4.4530   -1.3520   44.5350 N   0  0  0  0  0  0  0  0  0  0  0  0
    3.1310   -0.1920   46.1990 C   0  0  1  0  0  0  0  0  0  0  0  0
    4.2580    0.4810   46.7560 O   0  0  0  0  0  0  0  0  0  0  0  0
    1.8580    0.6170   46.4900 C   0  0  2  0  0  0  0  0  0  0  0  0
    1.7270    0.8430   47.8900 O   0  0  0  0  0  0  0  0  0  0  0  0
    0.6180   -0.0770   45.8840 C   0  0  2  0  0  0  0  0  0  0  0  0
    0.8220   -0.1270   44.4560 O   0  0  0  0  0  0  0  0  0  0  0  0
   -0.6990    0.6520   46.1450 C   0  0  0  0  0  0  0  0  0  0  0  0
   -1.0350    0.6300   47.5260 O   0  0  0  0  0  0  0  0  0  0  0  0
    1.8580    1.9320   37.2030 C   0  0  2  0  0  0  0  0  0  0  0  0
    2.9390    1.4290   38.0350 O   0  0  0  0  0  0  0  0  0  0  0  0
    3.7780    0.3970   37.4150 C   0  0  2  0  0  0  0  0  0  0  0  0
    4.6970   -0.1750   38.3780 O   0  0  0  0  0  0  0  0  0  0  0  0
    4.4640    0.9520   36.1390 C   0  0  2  0  0  0  0  0  0  0  0  0
    5.6620    1.7660   36.4410 N   0  0  0  0  0  0  0  0  0  0  0  0
    3.4670    1.7620   35.2470 C   0  0  1  0  0  0  0  0  0  0  0  0
    2.6960    0.8460   34.4730 O   0  0  0  0  0  0  0  0  0  0  0  0
    2.4950    2.6990   36.0170 C   0  0  2  0  0  0  0  0  0  0  0  0
    3.2120    3.8370   36.4920 O   0  0  0  0  0  0  0  0  0  0  0  0
    0.8710    2.7750   38.0320 C   0  0  0  0  0  0  0  0  0  0  0  0
    0.2410    2.0060   39.1230 N   0  0  0  0  0  0  0  0  0  0  0  0
    0.2340   -5.6030   41.9910 C   0  0  1  0  0  0  0  0  0  0  0  0
   -0.5240   -6.5180   41.1180 N   0  0  0  0  0  0  0  0  0  0  0  0
    1.0020   -4.5150   41.1810 C   0  0  2  0  0  0  0  0  0  0  0  0
    1.9150   -5.1240   40.2710 O   0  0  0  0  0  0  0  0  0  0  0  0
    1.8040   -3.5700   42.1230 C   0  0  1  0  0  0  0  0  0  0  0  0
    2.3580   -2.4800   41.3280 O   0  0  0  0  0  0  0  0  0  0  0  0
    0.9110   -2.9800   43.2630 C   0  0  1  0  0  0  0  0  0  0  0  0
    0.1050   -4.0760   44.0310 C   0  0  1  0  0  0  0  0  0  0  0  0
   -0.8040   -3.4800   45.0350 N   0  0  0  0  0  0  0  0  0  0  0  0
   -0.7100   -4.9490   43.0420 C   0  0  0  0  0  0  0  0  0  0  0  0
    3.8050   -2.2640   41.2910 C   0  0  1  0  0  0  0  0  0  0  0  0
    4.2580   -2.2090   39.8200 C   0  0  2  0  0  0  0  0  0  0  0  0
    5.6280   -2.5790   39.6920 O   0  0  0  0  0  0  0  0  0  0  0  0
    4.0320   -0.7130   39.5540 C   0  0  1  0  0  0  0  0  0  0  0  0
    4.5760   -0.0720   40.8200 C   0  0  2  0  0  0  0  0  0  0  0  0
    4.1310   -0.9690   41.8260 O   0  0  0  0  0  0  0  0  0  0  0  0
    4.0650    1.3460   41.1060 C   0  0  0  0  0  0  0  0  0  0  0  0
    4.6930    1.8650   42.2690 O   0  0  0  0  0  0  0  0  0  0  0  0
  1  2  1  1  0  0  0
  1  3  1  0  0  0  0
  1 10  1  0  0  0  0
  3  4  1  1  0  0  0
  3  5  1  0  0  0  0
  5  6  1  6  0  0  0
  5  7  1  0  0  0  0
  7  8  1  1  0  0  0
  7  9  1  0  0  0  0
  9 10  1  0  0  0  0
  9 11  1  6  0  0  0
 11 12  1  0  0  0  0
 13 14  1  0  0  0  0
 13 21  1  0  0  0  0
 13 23  1  1  0  0  0
 14 15  1  0  0  0  0
 15 16  1  1  0  0  0
 15 17  1  0  0  0  0
 17 18  1  1  0  0  0
 17 19  1  0  0  0  0
 19 20  1  1  0  0  0
 19 21  1  0  0  0  0
 21 22  1  1  0  0  0
 23 24  1  0  0  0  0
 25 26  1  6  0  0  0
 25 27  1  0  0  0  0
 25 34  1  0  0  0  0
 27 28  1  6  0  0  0
 27 29  1  0  0  0  0
 29 30  1  6  0  0  0
 29 31  1  0  0  0  0
 31 32  1  0  0  0  0
 31  2  1  1  0  0  0
 32 33  1  1  0  0  0
 32 34  1  0  0  0  0
 35 36  1  0  0  0  0
 35 40  1  0  0  0  0
 35 30  1  6  0  0  0
 36 37  1  1  0  0  0
 36 38  1  0  0  0  0
 38 39  1  0  0  0  0
 38 16  1  6  0  0  0
 39 40  1  0  0  0  0
 39 41  1  1  0  0  0
 41 42  1  0  0  0  0
M  END
>  <HEADER>
Generated with yapdb_parser, version: unknown (https://github.com/m4rx9/rna-pdb-tools) Wed Jan 27 17:52:25 2016

$$$$
