@<TRIPOS>MOLECULE
4F8V_SIS_A_101
 68 70 0 0 0
SMALL
GASTEIGER

@<TRIPOS>ATOM
      1 C          -1.3466    0.1373   -0.1846 C.3     1  UNL1        0.2172
      2 H          -0.8674   -0.4539    0.5985 H       1  UNL1        0.1072
      3 C          -2.7947   -0.3641   -0.3649 C.3     1  UNL1        0.0717
      4 H          -2.7883   -1.4203   -0.6538 H       1  UNL1        0.0523
      5 C          -3.5598   -0.1910    0.9541 C.3     1  UNL1       -0.0102
      6 C          -3.2773    1.1705    1.5658 C.2     1  UNL1       -0.0434
      7 C          -2.0202    1.6428    1.4501 C.2     1  UNL1        0.1108
      8 C          -1.4755    2.7116    2.3600 C.3     1  UNL1        0.0513
      9 N          -0.9434    3.8839    1.6739 N.3     1  UNL1       -0.3237
     10 O          -1.3765    1.5222    0.2050 O.2     1  UNL1       -0.4653
     11 N          -3.4860    0.3709   -1.4373 N.3     1  UNL1       -0.3221
     12 O          -0.6548   -0.1247   -1.4006 O.3     1  UNL1       -0.3328
     13 C           0.7065    0.2939   -1.5704 C.3     1  UNL1        0.1061
     14 H           0.6362    1.2420   -2.1197 H       1  UNL1        0.0640
     15 C           1.3085   -0.7942   -2.4917 C.3     1  UNL1        0.0355
     16 H           0.8100   -1.7547   -2.2970 H       1  UNL1        0.0485
     17 C           2.8089   -0.9880   -2.2815 C.3     1  UNL1       -0.0175
     18 C           3.0829   -1.4816   -0.8556 C.3     1  UNL1        0.0355
     19 H           2.7378   -2.5224   -0.7997 H       1  UNL1        0.0485
     20 C           2.3502   -0.6581    0.2415 C.3     1  UNL1        0.1051
     21 H           3.0870   -0.2573    0.9490 H       1  UNL1        0.0639
     22 C           1.5565    0.5428   -0.3068 C.3     1  UNL1        0.1105
     23 H           0.9565    0.9712    0.4926 H       1  UNL1        0.0646
     24 O           2.5356    1.5471   -0.6561 O.3     1  UNL1       -0.3865
     25 O           1.4881   -1.5717    0.9465 O.3     1  UNL1       -0.3413
     26 C           1.2700   -1.2386    2.3171 C.3     1  UNL1        0.1870
     27 H           1.2627   -0.1474    2.4288 H       1  UNL1        0.0937
     28 C           2.3116   -1.8044    3.3108 C.3     1  UNL1        0.1239
     29 H           2.2836   -1.1437    4.1871 H       1  UNL1        0.0661
     30 C           2.0173   -3.2544    3.7842 C.3     1  UNL1        0.0692
     31 H           2.9494   -3.8488    3.7742 H       1  UNL1        0.0517
     32 C           0.9891   -3.9591    2.8739 C.3     1  UNL1        0.1043
     33 C          -0.2545   -3.0820    2.6249 C.3     1  UNL1        0.0808
     34 O          -0.0168   -1.6794    2.7710 O.3     1  UNL1       -0.3459
     35 C           1.6248   -4.4577    1.5609 C.3     1  UNL1       -0.0323
     36 O           0.5251   -5.1745    3.5052 O.3     1  UNL1       -0.3849
     37 N           1.4967   -3.2243    5.1684 N.3     1  UNL1       -0.3115
     38 C           2.5622   -3.2449    6.1642 C.3     1  UNL1       -0.0154
     39 O           3.6389   -1.7067    2.8187 O.3     1  UNL1       -0.3851
     40 N           4.5324   -1.5003   -0.6485 N.3     1  UNL1       -0.3250
     41 N           1.0474   -0.4480   -3.8951 N.3     1  UNL1       -0.3250
     42 H          -4.6388   -0.3192    0.8093 H       1  UNL1        0.0325
     43 H          -3.2346   -0.9600    1.6646 H       1  UNL1        0.0325
     44 H          -3.9095    1.4658    2.3930 H       1  UNL1        0.0606
     45 H          -0.6858    2.2645    2.9731 H       1  UNL1        0.0502
     46 H          -2.2488    3.0527    3.0542 H       1  UNL1        0.0502
     47 H          -0.7049    3.6518    0.7111 H       1  UNL1        0.1186
     48 H          -0.0695    4.1625    2.1154 H       1  UNL1        0.1186
     49 H          -2.9900    0.2307   -2.3145 H       1  UNL1        0.1187
     50 H          -3.4446    1.3704   -1.2491 H       1  UNL1        0.1187
     51 H           3.3633   -0.0639   -2.4851 H       1  UNL1        0.0297
     52 H           3.1978   -1.7332   -2.9939 H       1  UNL1        0.0297
     53 H           2.5207    2.2216    0.0448 H       1  UNL1        0.2100
     54 H          -1.0525   -3.3347    3.3326 H       1  UNL1        0.0590
     55 H          -0.6811   -3.2387    1.6260 H       1  UNL1        0.0590
     56 H           1.9682   -5.4983    1.6546 H       1  UNL1        0.0258
     57 H           2.5068   -3.8778    1.2801 H       1  UNL1        0.0258
     58 H           0.9257   -4.4296    0.7209 H       1  UNL1        0.0258
     59 H           0.3940   -4.9840    4.4498 H       1  UNL1        0.2103
     60 H           0.9035   -2.4098    5.3100 H       1  UNL1        0.1221
     61 H           3.0898   -4.2036    6.1514 H       1  UNL1        0.0388
     62 H           2.1348   -3.1113    7.1609 H       1  UNL1        0.0388
     63 H           3.2880   -2.4394    6.0016 H       1  UNL1        0.0388
     64 H           3.7425   -2.3362    2.0875 H       1  UNL1        0.2101
     65 H           4.7894   -2.3156   -0.0908 H       1  UNL1        0.1185
     66 H           4.8347   -0.6798   -0.1247 H       1  UNL1        0.1185
     67 H           1.8970   -0.1259   -4.3520 H       1  UNL1        0.1185
     68 H           0.7529   -1.2817   -4.3987 H       1  UNL1        0.1185
@<TRIPOS>BOND
     1     1     2    1
     2     3     1    1
     3     3     4    1
     4     5     3    1
     5     6     5    1
     6     7     6    2
     7     8     7    1
     8     9     8    1
     9    10     7    1
    10    10     1    1
    11    11     3    1
    12    12     1    1
    13    13    12    1
    14    13    14    1
    15    15    13    1
    16    15    16    1
    17    17    15    1
    18    18    17    1
    19    18    19    1
    20    20    18    1
    21    20    21    1
    22    22    20    1
    23    22    23    1
    24    22    13    1
    25    24    22    1
    26    25    20    1
    27    26    25    1
    28    26    27    1
    29    28    26    1
    30    28    29    1
    31    30    28    1
    32    30    31    1
    33    32    30    1
    34    33    32    1
    35    34    33    1
    36    34    26    1
    37    35    32    1
    38    36    32    1
    39    37    30    1
    40    38    37    1
    41    39    28    1
    42    40    18    1
    43    41    15    1
    44     5    42    1
    45     5    43    1
    46     6    44    1
    47     8    45    1
    48     8    46    1
    49     9    47    1
    50     9    48    1
    51    11    49    1
    52    11    50    1
    53    17    51    1
    54    17    52    1
    55    24    53    1
    56    33    54    1
    57    33    55    1
    58    35    56    1
    59    35    57    1
    60    35    58    1
    61    36    59    1
    62    37    60    1
    63    38    61    1
    64    38    62    1
    65    38    63    1
    66    39    64    1
    67    40    65    1
    68    40    66    1
    69    41    67    1
    70    41    68    1
