REMARK  6 active torsions:
REMARK  status: ('A' for Active; 'I' for Inactive)
REMARK    1  A    between atoms: N_1  and  CA_2 
REMARK    2  A    between atoms: CA_2  and  C_3 
REMARK    3  A    between atoms: CA_2  and  CB_5 
REMARK    4  A    between atoms: CB_5  and  CG_6 
REMARK    5  A    between atoms: CG_6  and  CD_7 
REMARK    6  A    between atoms: CD_7  and  NE_8 
REMARK       I    between atoms: NE_8  and  CZ_9 
REMARK       I    between atoms: CZ_9  and  NH1_10 
ROOT
ATOM      1  CD  ARG d   1       5.811  10.117  26.144  0.00  0.00     0.138 C 
ENDROOT
BRANCH   1   2
ATOM      2  CG  ARG d   1       4.383   9.781  26.543  0.00  0.00     0.023 C 
BRANCH   2   3
ATOM      3  CB  ARG d   1       3.571   9.298  25.353  0.00  0.00     0.044 C 
BRANCH   3   4
ATOM      4  CA  ARG d   1       2.319   8.510  25.744  0.00  0.00     0.278 C 
BRANCH   4   5
ATOM      5  N   ARG d   1       1.402   9.357  26.497  0.00  0.00     0.089 N 
ATOM      6  H1  ARG d   1       0.573   8.819  26.751  0.00  0.00     0.313 HD
ATOM      7  H2  ARG d   1       1.127  10.155  25.924  0.00  0.00     0.313 HD
ENDBRANCH   4   5
BRANCH   4   8
ATOM      8  C   ARG d   1       2.713   7.279  26.556  0.00  0.00     0.266 C 
ATOM      9  O   ARG d   1       2.667   7.294  27.786  0.00  0.00    -0.305 OA
ENDBRANCH   4   8
ENDBRANCH   3   4
ENDBRANCH   2   3
ENDBRANCH   1   2
BRANCH   1  10
ATOM     10  NE  ARG d   1       5.972  11.533  25.824  0.00  0.00    -0.227 N 
ATOM     11  CZ  ARG d   1       7.132  12.175  25.896  0.00  0.00     0.665 C 
ATOM     12  NH1 ARG d   1       8.228  11.531  26.273  0.00  0.00    -0.235 N 
ATOM     13  NH2 ARG d   1       7.198  13.464  25.589  0.00  0.00    -0.235 N 
ATOM     14 1HH1 ARG d   1       8.183  10.575  26.502  0.00  0.00     0.174 HD
ATOM     15 2HH1 ARG d   1       9.087  12.009  26.324  0.00  0.00     0.174 HD
ATOM     16 1HH2 ARG d   1       6.386  13.945  25.309  0.00  0.00     0.174 HD
ATOM     17 2HH2 ARG d   1       8.059  13.939  25.642  0.00  0.00     0.174 HD
ATOM     18  HE  ARG d   1       5.177  12.039  25.539  0.00  0.00     0.177 HD
ENDBRANCH   1  10
TORSDOF 6
