
  Mrv1688 03221814023D          
Coordinates from PDB:2KX8:A:392 Model:1 without hydrogens
 26 25  0  0  1  0            999 V2000
    1.4020    9.3570   26.4970 N   0  0  2  0  0  0  0  0  0  0  0  0
    2.3190    8.5100   25.7440 C   0  0  2  0  0  0  0  0  0  0  0  0
    2.7130    7.2790   26.5560 C   0  0  0  0  0  0  0  0  0  0  0  0
    2.6670    7.2940   27.7860 O   0  0  0  0  0  0  0  0  0  0  0  0
    3.5710    9.2980   25.3530 C   0  0  2  0  0  0  0  0  0  0  0  0
    4.3830    9.7810   26.5430 C   0  0  2  0  0  0  0  0  0  0  0  0
    5.8110   10.1170   26.1440 C   0  0  2  0  0  0  0  0  0  0  0  0
    5.9720   11.5330   25.8240 N   0  0  0  0  0  0  0  0  0  0  0  0
    7.1320   12.1750   25.8960 C   0  0  0  0  0  0  0  0  0  0  0  0
    8.2280   11.5310   26.2730 N   0  0  0  0  0  0  0  0  0  0  0  0
    7.1980   13.4640   25.5890 N   0  3  0  0  0  0  0  0  0  0  0  0
    0.5731    8.8194   26.7506 H   0  0  0  0  0  0  0  0  0  0  0  0
    1.1275   10.1547   25.9237 H   0  0  0  0  0  0  0  0  0  0  0  0
    1.8180    8.1857   24.8559 H   0  0  0  0  0  0  0  0  0  0  0  0
    3.0217    6.4238   26.0679 H   0  0  0  0  0  0  0  0  0  0  0  0
    3.2691   10.1505   24.7812 H   0  0  0  0  0  0  0  0  0  0  0  0
    4.1975    8.6342   24.7947 H   0  0  0  0  0  0  0  0  0  0  0  0
    4.4016    9.0117   27.2864 H   0  0  0  0  0  0  0  0  0  0  0  0
    3.9235   10.6687   26.9247 H   0  0  0  0  0  0  0  0  0  0  0  0
    6.0750    9.5367   25.2847 H   0  0  0  0  0  0  0  0  0  0  0  0
    6.4473    9.8918   26.9742 H   0  0  0  0  0  0  0  0  0  0  0  0
    5.1769   12.0391   25.5394 H   0  0  0  0  0  0  0  0  0  0  0  0
    8.1828   10.5745   26.5016 H   0  0  0  0  0  0  0  0  0  0  0  0
    9.0869   12.0094   26.3243 H   0  0  0  0  0  0  0  0  0  0  0  0
    6.3863   13.9454   25.3087 H   0  0  0  0  0  0  0  0  0  0  0  0
    8.0587   13.9391   25.6415 H   0  0  0  0  0  0  0  0  0  0  0  0
  1  2  1  0  0  0  0
  1 12  1  0  0  0  0
  1 13  1  0  0  0  0
  2  3  1  0  0  0  0
  2  5  1  0  0  0  0
  2 14  1  6  0  0  0
  3  4  2  0  0  0  0
  3 15  1  0  0  0  0
  5  6  1  0  0  0  0
  5 16  1  0  0  0  0
  5 17  1  0  0  0  0
  6  7  1  0  0  0  0
  6 18  1  0  0  0  0
  6 19  1  0  0  0  0
  7  8  1  0  0  0  0
  7 20  1  0  0  0  0
  7 21  1  0  0  0  0
  8  9  1  0  0  0  0
  8 22  1  0  0  0  0
  9 10  1  0  0  0  0
  9 11  2  0  0  0  0
 10 23  1  0  0  0  0
 10 24  1  0  0  0  0
 11 25  1  0  0  0  0
 11 26  1  0  0  0  0
M  CHG  1  11   1
M  END
$$$$
