@<TRIPOS>MOLECULE
*****
 26 25 0 0 0
SMALL
GASTEIGER
****
Coordinates from PDB:2KX8:A:392 Model:1 without hydrogens
@<TRIPOS>ATOM
      1 N           1.4020    9.3570   26.4970 N.3     1  ARG1       -0.3215
      2 CA          2.3190    8.5100   25.7440 C.3     1  ARG1        0.0610
      3 C           2.7130    7.2790   26.5560 C.2     1  ARG1        0.1369
      4 O           2.6670    7.2940   27.7860 O.2     1  ARG1       -0.2994
      5 CB          3.5710    9.2980   25.3530 C.3     1  ARG1       -0.0283
      6 CG          4.3830    9.7810   26.5430 C.3     1  ARG1       -0.0204
      7 CD          5.8110   10.1170   26.1440 C.3     1  ARG1        0.0646
      8 NE          5.9720   11.5330   25.8240 N.pl3   1  ARG1       -0.2787
      9 CZ          7.1320   12.1750   25.8960 C.cat   1  ARG1        0.3410
     10 NH1         8.2280   11.5310   26.2730 N.pl3   1  ARG1       -0.2919
     11 NH2         7.1980   13.4640   25.5890 N.pl3   1  ARG1       -0.2919
     12 H1          0.5731    8.8194   26.7506 H       1  ARG1        0.1188
     13 H2          1.1275   10.1547   25.9237 H       1  ARG1        0.1188
     14 HA          1.8180    8.1857   24.8559 H       1  ARG1        0.0534
     15 H           3.0217    6.4238   26.0679 H       1  ARG1        0.1043
     16 HB1         3.2691   10.1505   24.7812 H       1  ARG1        0.0285
     17 HB2         4.1975    8.6342   24.7947 H       1  ARG1        0.0285
     18 HG1         4.4016    9.0117   27.2864 H       1  ARG1        0.0296
     19 HG2         3.9235   10.6687   26.9247 H       1  ARG1        0.0296
     20 HD1         6.0750    9.5367   25.2847 H       1  ARG1        0.0655
     21 HD2         6.4473    9.8918   26.9742 H       1  ARG1        0.0655
     22 HE          5.1769   12.0391   25.5394 H       1  ARG1        0.2578
     23 HH11        8.1828   10.5745   26.5016 H       1  ARG1        0.2545
     24 HH12        9.0869   12.0094   26.3243 H       1  ARG1        0.2545
     25 HH21        6.3863   13.9454   25.3087 H       1  ARG1        0.2545
     26 HH22        8.0587   13.9391   25.6415 H       1  ARG1        0.2545
@<TRIPOS>BOND
     1     1     2    1
     2     1    12    1
     3     1    13    1
     4     2     3    1
     5     2     5    1
     6     2    14    1
     7     3     4    2
     8     3    15    1
     9     5     6    1
    10     5    16    1
    11     5    17    1
    12     6     7    1
    13     6    18    1
    14     6    19    1
    15     7     8    1
    16     7    20    1
    17     7    21    1
    18     8     9    1
    19     8    22    1
    20     9    10    1
    21     9    11    2
    22    10    23    1
    23    10    24    1
    24    11    25    1
    25    11    26    1
