1F27_BTN_A_33
 OpenBabel10091713583D
Coordinates from PDB:1F27:A:33 Model:1 without hydrogens
 32 33  0  0  1  0  0  0  0  0999 V2000
   21.3620   -2.2610   13.5490 C   0  0  0  0  0  0  0  0  0  0  0  0
   22.4890   -2.5000   13.9710 O   0  0  0  0  0  0  0  0  0  0  0  0
   21.0750   -2.5310   12.3840 O   0  0  0  0  0  0  0  0  0  0  0  0
   20.3000   -1.6950   14.4830 C   0  0  0  0  0  0  0  0  0  0  0  0
   20.0760   -0.1740   14.3300 C   0  0  0  0  0  0  0  0  0  0  0  0
   19.2880    0.1530   13.0750 C   0  0  0  0  0  0  0  0  0  0  0  0
   18.6370    1.5200   13.1090 C   0  0  0  0  0  0  0  0  0  0  0  0
   17.2750    1.5670   13.8140 C   0  0  2  0  0  0  0  0  0  0  0  0
   16.0560    0.1580   13.3730 S   0  0  0  0  0  0  0  0  0  0  0  0
   14.7010    1.2210   14.1970 C   0  0  0  0  0  0  0  0  0  0  0  0
   15.0810    2.6920   13.8580 C   0  0  2  0  0  0  0  0  0  0  0  0
   14.3530    3.0160   12.5260 N   0  0  0  0  0  0  0  0  0  0  0  0
   15.1390    3.3340   11.5910 C   0  0  0  0  0  0  0  0  0  0  0  0
   14.9150    3.5030   10.3400 O   0  0  0  0  0  0  0  0  0  0  0  0
   16.5350    3.1690   11.9250 N   0  0  0  0  0  0  0  0  0  0  0  0
   16.5270    2.8420   13.4180 C   0  0  2  0  0  0  0  0  0  0  0  0
   20.2150   -2.3495   12.0592 H   0  0  0  0  0  0  0  0  0  0  0  0
   20.5993   -1.8914   15.4913 H   0  0  0  0  0  0  0  0  0  0  0  0
   19.3767   -2.1715   14.2275 H   0  0  0  0  0  0  0  0  0  0  0  0
   21.0272    0.3134   14.2792 H   0  0  0  0  0  0  0  0  0  0  0  0
   19.5152    0.1676   15.1748 H   0  0  0  0  0  0  0  0  0  0  0  0
   18.5217   -0.5841   12.9546 H   0  0  0  0  0  0  0  0  0  0  0  0
   19.9812    0.1549   12.2599 H   0  0  0  0  0  0  0  0  0  0  0  0
   18.5010    1.8490   12.1000 H   0  0  0  0  0  0  0  0  0  0  0  0
   19.2907    2.1508   13.6744 H   0  0  0  0  0  0  0  0  0  0  0  0
   17.5346    1.4943   14.8495 H   0  0  0  0  0  0  0  0  0  0  0  0
   14.6956    1.0685   15.2561 H   0  0  0  0  0  0  0  0  0  0  0  0
   13.7225    0.9676   13.8459 H   0  0  0  0  0  0  0  0  0  0  0  0
   14.8592    3.2838   14.7214 H   0  0  0  0  0  0  0  0  0  0  0  0
   13.3749    2.9773   12.4208 H   0  0  0  0  0  0  0  0  0  0  0  0
   17.3134    3.2489   11.3275 H   0  0  0  0  0  0  0  0  0  0  0  0
   17.0411    3.6479   13.8988 H   0  0  0  0  0  0  0  0  0  0  0  0
  1  2  2  0  0  0  0
  1  3  1  0  0  0  0
  1  4  1  0  0  0  0
  3 17  1  0  0  0  0
  4  5  1  0  0  0  0
  4 18  1  0  0  0  0
  4 19  1  0  0  0  0
  5  6  1  0  0  0  0
  5 20  1  0  0  0  0
  5 21  1  0  0  0  0
  6  7  1  0  0  0  0
  6 22  1  0  0  0  0
  6 23  1  0  0  0  0
  7  8  1  0  0  0  0
  7 24  1  0  0  0  0
  7 25  1  0  0  0  0
  8  9  1  0  0  0  0
  8 16  1  0  0  0  0
  8 26  1  1  0  0  0
  9 10  1  0  0  0  0
 10 11  1  0  0  0  0
 10 27  1  0  0  0  0
 10 28  1  0  0  0  0
 11 12  1  0  0  0  0
 11 16  1  0  0  0  0
 11 29  1  1  0  0  0
 12 13  1  0  0  0  0
 12 30  1  0  0  0  0
 13 14  2  0  0  0  0
 13 15  1  0  0  0  0
 15 16  1  0  0  0  0
 15 31  1  0  0  0  0
 16 32  1  1  0  0  0
M  END
$$$$
