@<TRIPOS>MOLECULE
1F27_BTN_A_33
 16 17 0 0 0
SMALL
GASTEIGER
****
Coordinates from PDB:1F27:A:33 Model:1 without hydrogens
@<TRIPOS>ATOM
      1 C          21.3620   -2.2610   13.5490 C.2     1  UNL1        0.3649
      2 O          22.4890   -2.5000   13.9710 O.co2   1  UNL1       -0.2457
      3 O          21.0750   -2.5310   12.3840 O.co2   1  UNL1       -0.2457
      4 C          20.3000   -1.6950   14.4830 C.3     1  UNL1        0.1141
      5 C          20.0760   -0.1740   14.3300 C.3     1  UNL1        0.0118
      6 C          19.2880    0.1530   13.0750 C.3     1  UNL1        0.0015
      7 C          18.6370    1.5200   13.1090 C.3     1  UNL1        0.0126
      8 C          17.2750    1.5670   13.8140 C.3     1  UNL1        0.0694
      9 S          16.0560    0.1580   13.3730 S.3     1  UNL1       -0.1374
     10 C          14.7010    1.2210   14.1970 C.3     1  UNL1        0.0810
     11 C          15.0810    2.6920   13.8580 C.3     1  UNL1        0.1284
     12 N          14.3530    3.0160   12.5260 N.am    1  UNL1       -0.1863
     13 C          15.1390    3.3340   11.5910 C.2     1  UNL1        0.3393
     14 O          14.9150    3.5030   10.3400 O.2     1  UNL1       -0.2492
     15 N          16.5350    3.1690   11.9250 N.am    1  UNL1       -0.1863
     16 C          16.5270    2.8420   13.4180 C.3     1  UNL1        0.1275
@<TRIPOS>BOND
     1     1     2   ar
     2     1     3   ar
     3     1     4    1
     4     4     5    1
     5     5     6    1
     6     6     7    1
     7     8     7    1
     8     8     9    1
     9     8    16    1
    10     9    10    1
    11    11    10    1
    12    11    12    1
    13    11    16    1
    14    12    13   am
    15    13    14    2
    16    13    15   am
    17    16    15    1
