1F27_BTN_A_33
 OpenBabel10091713583D
Coordinates from PDB:1F27:A:33 Model:1 without hydrogens
 32 33  0  0  0  0  0  0  0  0999 V2000
   21.3620   -2.2610   13.5490 C   0  0  0  0  0  0  0  0  0  0  0  0
   22.4890   -2.5000   13.9710 O   0  0  0  0  0  0  0  0  0  0  0  0
   21.0750   -2.5310   12.3840 O   0  0  0  0  0  0  0  0  0  0  0  0
   20.3000   -1.6950   14.4830 C   0  0  0  0  0  0  0  0  0  0  0  0
   20.0760   -0.1740   14.3300 C   0  0  0  0  0  0  0  0  0  0  0  0
   19.2880    0.1530   13.0750 C   0  0  0  0  0  0  0  0  0  0  0  0
   18.6370    1.5200   13.1090 C   0  0  0  0  0  0  0  0  0  0  0  0
   17.2750    1.5670   13.8140 C   0  0  2  0  0  0  0  0  0  0  0  0
   16.0560    0.1580   13.3730 S   0  0  0  0  0  0  0  0  0  0  0  0
   14.7010    1.2210   14.1970 C   0  0  0  0  0  0  0  0  0  0  0  0
   15.0810    2.6920   13.8580 C   0  0  2  0  0  0  0  0  0  0  0  0
   14.3530    3.0160   12.5260 N   0  0  0  0  0  0  0  0  0  0  0  0
   15.1390    3.3340   11.5910 C   0  0  0  0  0  0  0  0  0  0  0  0
   14.9150    3.5030   10.3400 O   0  0  0  0  0  0  0  0  0  0  0  0
   16.5350    3.1690   11.9250 N   0  0  0  0  0  0  0  0  0  0  0  0
   16.5270    2.8420   13.4180 C   0  0  2  0  0  0  0  0  0  0  0  0
   20.2150   -2.3495   12.0592 H   0  0  0  0  0  0  0  0  0  0  0  0
   20.5993   -1.8914   15.4913 H   0  0  0  0  0  0  0  0  0  0  0  0
   19.3767   -2.1715   14.2275 H   0  0  0  0  0  0  0  0  0  0  0  0
   21.0272    0.3134   14.2792 H   0  0  0  0  0  0  0  0  0  0  0  0
   19.5152    0.1676   15.1748 H   0  0  0  0  0  0  0  0  0  0  0  0
   18.5217   -0.5841   12.9546 H   0  0  0  0  0  0  0  0  0  0  0  0
   19.9812    0.1549   12.2599 H   0  0  0  0  0  0  0  0  0  0  0  0
   18.5010    1.8490   12.1000 H   0  0  0  0  0  0  0  0  0  0  0  0
   19.2907    2.1508   13.6744 H   0  0  0  0  0  0  0  0  0  0  0  0
   17.5346    1.4943   14.8495 H   0  0  0  0  0  0  0  0  0  0  0  0
   14.6956    1.0685   15.2561 H   0  0  0  0  0  0  0  0  0  0  0  0
   13.7225    0.9676   13.8459 H   0  0  0  0  0  0  0  0  0  0  0  0
   14.8592    3.2838   14.7214 H   0  0  0  0  0  0  0  0  0  0  0  0
   13.3749    2.9773   12.4208 H   0  0  0  0  0  0  0  0  0  0  0  0
   17.3134    3.2489   11.3275 H   0  0  0  0  0  0  0  0  0  0  0  0
   17.0411    3.6479   13.8988 H   0  0  0  0  0  0  0  0  0  0  0  0
  1  2  2  0  0  0  0
  1  3  1  0  0  0  0
  1  4  1  0  0  0  0
  3 17  1  0  0  0  0
  4  5  1  0  0  0  0
  4 18  1  0  0  0  0
  4 19  1  0  0  0  0
  5  6  1  0  0  0  0
  5 20  1  0  0  0  0
  5 21  1  0  0  0  0
  6  7  1  0  0  0  0
  6 22  1  0  0  0  0
  6 23  1  0  0  0  0
  7  8  1  0  0  0  0
  7 24  1  0  0  0  0
  7 25  1  0  0  0  0
  8  9  1  0  0  0  0
  8 16  1  0  0  0  0
  8 26  1  1  0  0  0
  9 10  1  0  0  0  0
 10 11  1  0  0  0  0
 10 27  1  0  0  0  0
 10 28  1  0  0  0  0
 11 12  1  0  0  0  0
 11 16  1  0  0  0  0
 11 29  1  1  0  0  0
 12 13  1  0  0  0  0
 12 30  1  0  0  0  0
 13 14  2  0  0  0  0
 13 15  1  0  0  0  0
 15 16  1  0  0  0  0
 15 31  1  0  0  0  0
 16 32  1  1  0  0  0
A    1
C11
A    2
O11
A    3
O12
A    4
C10
A    5
C9
A    6
C8
A    7
C7
A    8
C2
A    9
S1
A   10
C6
A   11
C5
A   12
N1
A   13
C3
A   14
O3
A   15
N2
A   16
C4
M  END
>  <InstanceId>
1F27_BTN_A_33

>  <ChemCompId>
BTN

>  <PdbId>
1F27

>  <ChainId>
A

>  <ResidueNumber>
33

>  <InsertionCode>


>  <Model>
1

>  <AltIds>


>  <MissingHeavyAtoms>
0

>  <ObservedFormula>
C10 N2 O3 S

>  <Name>
BIOTIN

>  <SystematicName>
5-[(3aS,4S,6aR)-2-oxidanylidene-1,3,3a,4,6,6a-hexahydrothieno[3,4-d]imidazol-4-yl]pentanoic acid

>  <Synonyms>


>  <Type>
NON-POLYMER

>  <Formula>
C10 H16 N2 O3 S

>  <MolecularWeight>
244.311

>  <ModifiedDate>
2014-04-29

>  <Parent>


>  <OneLetterCode>


>  <SubcomponentList>


>  <AmbiguousFlag>
N

>  <InChI>
InChI=1S/C10H16N2O3S/c13-8(14)4-2-1-3-7-9-6(5-16-7)11-10(15)12-9/h6-7,9H,1-5H2,(H,13,14)(H2,11,12,15)/t6-,7-,9-/m0/s1

>  <InChIKey>
YBJHBAHKTGYVGT-ZKWXMUAHSA-N

>  <SMILES>
C1[C@H]2[C@@H]([C@@H](S1)CCCCC(=O)O)NC(=O)N2

$$$$
