4FE5_HPA_B_101
  1228              2D

 14 15  0  0  0  0  0  0  0  0999 V2000
   -1.9492   -0.2935    0.0940 N   0  0  0  0  0  0  0  0  0  0  0  0
   -2.8537   -0.7399    0.0996 H   0  0  0  0  0  0  0  0  0  0  0  0
   -1.8286    1.0676    0.2744 C   0  0  0  0  0  0  0  0  0  0  0  0
   -0.7312    1.7548    0.2822 N   0  0  0  0  0  0  0  0  0  0  0  0
    0.4133    0.9744    0.1006 C   0  0  0  0  0  0  0  0  0  0  0  0
    0.3492   -0.3798   -0.0782 C   0  0  0  0  0  0  0  0  0  0  0  0
   -0.8626   -1.1107   -0.0934 C   0  0  0  0  0  0  0  0  0  0  0  0
   -0.9548   -2.3216   -0.2493 O   0  0  0  0  0  0  0  0  0  0  0  0
    1.6392   -0.7953   -0.2200 N   0  0  0  0  0  0  0  0  0  0  0  0
    1.9518   -1.7461   -0.3686 H   0  0  0  0  0  0  0  0  0  0  0  0
    2.4226    0.3245   -0.1246 C   0  0  0  0  0  0  0  0  0  0  0  0
    1.7036    1.4105    0.0731 N   0  0  0  0  0  0  0  0  0  0  0  0
   -2.8004    1.5677    0.4128 H   0  0  0  0  0  0  0  0  0  0  0  0
    3.5010    0.2875   -0.2026 H   0  0  0  0  0  0  0  0  0  0  0  0
  1  2  1  0  0  0  0
  3  1  1  0  0  0  0
  4  3  2  0  0  0  0
  5  4  1  0  0  0  0
  6  5  2  0  0  0  0
  7  6  1  0  0  0  0
  7  1  1  0  0  0  0
  8  7  2  0  0  0  0
  9  6  1  0  0  0  0
  9 10  1  0  0  0  0
 11  9  1  0  0  0  0
 12 11  2  0  0  0  0
 12  5  1  0  0  0  0
  3 13  1  0  0  0  0
 11 14  1  0  0  0  0
M  END
>  <energy>
-101.62233187053134

$$$$
