@<TRIPOS>MOLECULE
4FE5_HPA_B_101
 14 15 0 0 0
SMALL
GASTEIGER

@<TRIPOS>ATOM
      1 N          -1.9492   -0.2935    0.0940 N.ar    1  UNL1       -0.3116
      2 H          -2.8537   -0.7399    0.0996 H       1  UNL1        0.1698
      3 C          -1.8286    1.0676    0.2744 C.ar    1  UNL1        0.0985
      4 N          -0.7312    1.7548    0.2822 N.ar    1  UNL1       -0.2163
      5 C           0.4133    0.9744    0.1006 C.ar    1  UNL1        0.1844
      6 C           0.3492   -0.3798   -0.0782 C.ar    1  UNL1        0.1501
      7 C          -0.8626   -1.1107   -0.0934 C.ar    1  UNL1        0.2770
      8 O          -0.9548   -2.3216   -0.2493 O.2     1  UNL1       -0.2655
      9 N           1.6392   -0.7953   -0.2200 N.ar    1  UNL1       -0.3389
     10 H           1.9518   -1.7461   -0.3686 H       1  UNL1        0.1670
     11 C           2.4226    0.3245   -0.1246 C.ar    1  UNL1        0.0963
     12 N           1.7036    1.4105    0.0731 N.ar    1  UNL1       -0.2164
     13 H          -2.8004    1.5677    0.4128 H       1  UNL1        0.1028
     14 H           3.5010    0.2875   -0.2026 H       1  UNL1        0.1027
@<TRIPOS>BOND
     1     1     2    1
     2     3     1   ar
     3     4     3   ar
     4     5     4   ar
     5     6     5   ar
     6     7     6   ar
     7     7     1   ar
     8     8     7    2
     9     9     6   ar
    10     9    10    1
    11    11     9   ar
    12    12    11   ar
    13    12     5   ar
    14     3    13    1
    15    11    14    1
