REMARK  3 active torsions:
REMARK  status: ('A' for Active; 'I' for Inactive)
REMARK    1  A    between atoms: C_8  and  N_4 
REMARK    2  A    between atoms: C_9  and  C_8 
REMARK    3  A    between atoms: S_10  and  C_9 
ROOT
ATOM      1  O   UNL d   1      -2.502  -0.974   0.688  0.00  0.00    -0.388 OA
ATOM      2  C   UNL d   1      -1.721  -1.414  -0.424  0.00  0.00     0.195 C 
ATOM      3  C   UNL d   1      -0.989  -0.292  -1.149  0.00  0.00     0.261 C 
ATOM      4  N   UNL d   1      -0.558   0.760  -0.158  0.00  0.00    -0.066 N 
ATOM      5  H   UNL d   1      -0.190   1.537  -0.722  0.00  0.00     0.280 HD
ATOM      6  C   UNL d   1      -1.741   1.319   0.609  0.00  0.00     0.261 C 
ATOM      7  C   UNL d   1      -2.933   0.374   0.556  0.00  0.00     0.195 C 
ENDROOT
BRANCH   4   8
ATOM      8  C   UNL d   1       0.590   0.298   0.719  0.00  0.00     0.252 C 
BRANCH   8   9
ATOM      9  C   UNL d   1       1.358   1.483   1.294  0.00  0.00     0.193 C 
BRANCH   9  10
ATOM     10  S   UNL d   1       2.462   2.273   0.142  0.00  0.00     0.103 S 
ATOM     11  O   UNL d   1       3.387   1.205  -0.234  0.00  0.00    -0.595 OA
ATOM     12  O   UNL d   1       1.581   2.736  -0.927  0.00  0.00    -0.595 OA
ATOM     13  O   UNL d   1       3.057   3.339   0.947  0.00  0.00    -0.595 OA
ENDBRANCH   9  10
ENDBRANCH   8   9
ENDBRANCH   4   8
TORSDOF 3
