@<TRIPOS>MOLECULE
4P95_MES_A_601
 25 25 0 0 0
SMALL
GASTEIGER

@<TRIPOS>ATOM
      1 O          -2.5016   -0.9744    0.6879 O.3     1  UNL1       -0.3693
      2 C          -1.7210   -1.4143   -0.4239 C.3     1  UNL1        0.0878
      3 C          -0.9888   -0.2916   -1.1486 C.3     1  UNL1       -0.0078
      4 N          -0.5583    0.7597   -0.1581 N.4     1  UNL1        0.2396
      5 H          -0.1899    1.5369   -0.7219 H       1  UNL1        0.2036
      6 C          -1.7410    1.3195    0.6091 C.3     1  UNL1       -0.0078
      7 C          -2.9325    0.3741    0.5557 C.3     1  UNL1        0.0878
      8 C           0.5904    0.2981    0.7188 C.3     1  UNL1       -0.0129
      9 C           1.3579    1.4827    1.2941 C.3     1  UNL1        0.0945
     10 S           2.4625    2.2728    0.1424 S.3     1  UNL1       -0.0756
     11 O           3.3866    1.2054   -0.2342 O.2     1  UNL1       -0.1851
     12 O           1.5808    2.7357   -0.9267 O.2     1  UNL1       -0.1851
     13 O           3.0573    3.3388    0.9473 O.co2   1  UNL1       -0.7244
     14 H          -2.3781   -1.9451   -1.1210 H       1  UNL1        0.0613
     15 H          -1.0057   -2.1495   -0.0399 H       1  UNL1        0.0613
     16 H          -1.6448    0.2151   -1.8656 H       1  UNL1        0.0837
     17 H          -0.1101   -0.6503   -1.6943 H       1  UNL1        0.0837
     18 H          -1.9885    2.2869    0.1598 H       1  UNL1        0.0837
     19 H          -1.4302    1.4891    1.6455 H       1  UNL1        0.0837
     20 H          -3.5031    0.4911   -0.3737 H       1  UNL1        0.0613
     21 H          -3.6175    0.5995    1.3794 H       1  UNL1        0.0613
     22 H           1.2400   -0.3402    0.1106 H       1  UNL1        0.0830
     23 H           0.1633   -0.3129    1.5214 H       1  UNL1        0.0830
     24 H           1.9805    1.1345    2.1268 H       1  UNL1        0.0543
     25 H           0.6939    2.2573    1.6895 H       1  UNL1        0.0543
@<TRIPOS>BOND
     1     2     1    1
     2     3     2    1
     3     4     3    1
     4     4     5    1
     5     6     4    1
     6     7     6    1
     7     7     1    1
     8     8     4    1
     9     9     8    1
    10    10     9    1
    11    11    10    2
    12    12    10    2
    13    13    10    1
    14     2    14    1
    15     2    15    1
    16     3    16    1
    17     3    17    1
    18     6    18    1
    19     6    19    1
    20     7    20    1
    21     7    21    1
    22     8    22    1
    23     8    23    1
    24     9    24    1
    25     9    25    1
