REMARK  1 active torsions:
REMARK  status: ('A' for Active; 'I' for Inactive)
REMARK    1  A    between atoms: N_9  and  C_8 
ROOT
ATOM      1  N   UNL d   1      -1.739   1.168   0.029  0.00  0.00    -0.333 N 
ATOM      2  H   UNL d   1      -1.927   2.060   0.460  0.00  0.00     0.168 HD
ATOM      3  C   UNL d   1      -2.711   0.192  -0.087  0.00  0.00     0.209 A 
ATOM      4  N   UNL d   1      -2.204  -1.020  -0.058  0.00  0.00    -0.239 NA
ATOM      5  C   UNL d   1      -0.857  -0.835   0.119  0.00  0.00     0.121 A 
ATOM      6  C   UNL d   1       0.208  -1.717   0.200  0.00  0.00     0.155 C 
ATOM      7  N   UNL d   1       1.473  -1.227   0.155  0.00  0.00    -0.229 NA
ATOM      8  C   UNL d   1       1.669   0.123   0.165  0.00  0.00     0.201 C 
ATOM      9  N   UNL d   1       0.682   1.049   0.275  0.00  0.00    -0.198 NA
ATOM     10  C   UNL d   1      -0.545   0.508   0.201  0.00  0.00     0.162 A 
ENDROOT
BRANCH   8  11
ATOM     11  N   UNL d   1       2.989   0.592   0.005  0.00  0.00    -0.271 NA
ATOM     12  H   UNL d   1       3.655   0.047   0.546  0.00  0.00     0.127 HD
ATOM     13  H   UNL d   1       3.058   1.578   0.243  0.00  0.00     0.127 HD
ENDBRANCH   8  11
TORSDOF 1
