@<TRIPOS>MOLECULE
3G4M_2BP_A_91
 15 16 0 0 0
SMALL
GASTEIGER

@<TRIPOS>ATOM
      1 N          -1.7394    1.1676    0.0286 N.ar    1  UNL1       -0.3292
      2 H          -1.9273    2.0604    0.4595 H       1  UNL1        0.1682
      3 C          -2.7110    0.1918   -0.0867 C.ar    1  UNL1        0.0956
      4 N          -2.2038   -1.0198   -0.0578 N.ar    1  UNL1       -0.2328
      5 C          -0.8568   -0.8352    0.1191 C.ar    1  UNL1        0.1258
      6 C           0.2076   -1.7168    0.2002 C.ar    1  UNL1        0.0601
      7 N           1.4730   -1.2274    0.1548 N.ar    1  UNL1       -0.2209
      8 C           1.6685    0.1229    0.1651 C.ar    1  UNL1        0.2145
      9 N           2.9893    0.5920    0.0050 N.pl3   1  UNL1       -0.3274
     10 N           0.6819    1.0487    0.2751 N.ar    1  UNL1       -0.1952
     11 C          -0.5447    0.5078    0.2008 C.ar    1  UNL1        0.1627
     12 H          -3.7210    0.4519   -0.3891 H       1  UNL1        0.1027
     13 H           0.0850   -2.7905    0.1793 H       1  UNL1        0.0853
     14 H           3.6552    0.0471    0.5458 H       1  UNL1        0.1452
     15 H           3.0585    1.5779    0.2426 H       1  UNL1        0.1452
@<TRIPOS>BOND
     1     1     2    1
     2     3     1   ar
     3     4     3   ar
     4     5     4   ar
     5     6     5   ar
     6     7     6   ar
     7     8     7   ar
     8     9     8    1
     9    10     8   ar
    10    11    10   ar
    11    11     1   ar
    12    11     5   ar
    13     3    12    1
    14     6    13    1
    15     9    14    1
    16     9    15    1
