ligands/ligand.pdb
 OpenBabel10091713573D

 84 85  0  0  1  0  0  0  0  0999 V2000
   -5.1220   12.6660    3.3810 C   0  0  1  0  0  0  0  0  0  0  0  0
   -5.1770   12.8350    4.8050 O   0  0  0  0  0  0  0  0  0  0  0  0
   -4.7350   14.1370    5.3170 C   0  0  2  0  0  0  0  0  0  0  0  0
   -5.5620   15.2130    4.7780 O   0  0  0  0  0  0  0  0  0  0  0  0
   -3.2620   14.4330    4.8510 C   0  0  2  0  0  0  0  0  0  0  0  0
   -2.7820   15.7440    5.3220 N   0  0  0  0  0  0  0  0  0  0  0  0
   -3.1920   14.3450    3.2790 C   0  0  1  0  0  0  0  0  0  0  0  0
   -1.8600   14.6090    2.8300 O   0  0  0  0  0  0  0  0  0  0  0  0
   -3.6910   12.9260    2.8490 C   0  0  2  0  0  0  0  0  0  0  0  0
   -3.6850   12.7410    1.4240 O   0  0  0  0  0  0  0  0  0  0  0  0
   -5.6050   11.2830    3.0280 C   0  0  0  0  0  0  0  0  0  0  0  0
   -6.8730   11.0820    3.5190 N   0  0  0  0  0  0  0  0  0  0  0  0
   -8.9070   17.6430    6.0920 C   0  0  1  0  0  0  0  0  0  0  0  0
  -10.2010   18.0180    6.7280 N   0  0  0  0  0  0  0  0  0  0  0  0
   -7.9830   17.0700    7.1580 C   0  0  2  0  0  0  0  0  0  0  0  0
   -7.8320   18.0330    8.1580 O   0  0  0  0  0  0  0  0  0  0  0  0
   -6.6040   16.6790    6.5390 C   0  0  1  0  0  0  0  0  0  0  0  0
   -5.7350   16.1110    7.5660 O   0  0  0  0  0  0  0  0  0  0  0  0
   -6.8200   15.5990    5.4020 C   0  0  1  0  0  0  0  0  0  0  0  0
   -7.7270   16.1670    4.3210 C   0  0  1  0  0  0  0  0  0  0  0  0
   -7.9000   15.1650    3.2800 N   0  0  0  0  0  0  0  0  0  0  0  0
   -9.0910   16.5740    4.9400 C   0  0  0  0  0  0  0  0  0  0  0  0
   -8.1940   19.0800    9.0850 C   0  0  0  0  0  0  0  0  0  0  0  0
   -7.1080   19.2190   10.1270 C   0  0  0  0  0  0  0  0  0  0  0  0
   -6.2420   20.4020    9.9440 N   0  0  0  0  0  0  0  0  0  0  0  0
   -5.0490   21.2620    9.7720 C   0  0  0  0  0  0  0  0  0  0  0  0
   -4.3910   20.9630   11.1250 C   0  0  0  0  0  0  0  0  0  0  0  0
   -3.7200   19.5770   11.1560 C   0  0  0  0  0  0  0  0  0  0  0  0
   -2.5460   19.5570   12.1300 C   0  0  0  0  0  0  0  0  0  0  0  0
   -1.9360   18.2350   12.1510 N   0  0  0  0  0  0  0  0  0  0  0  0
  -14.2690   22.2620    8.2780 N   0  0  0  0  0  0  0  0  0  0  0  0
  -10.6370   19.7000    6.3710 C   0  0  0  0  0  0  0  0  0  0  0  0
  -10.1910   20.4980    5.7980 O   0  0  0  0  0  0  0  0  0  0  0  0
  -11.8510   19.4570    7.2340 C   0  0  2  0  0  0  0  0  0  0  0  0
  -12.6760   18.5130    6.6770 O   0  0  0  0  0  0  0  0  0  0  0  0
  -12.6370   20.7630    7.2690 C   0  0  0  0  0  0  0  0  0  0  0  0
  -13.6440   20.9390    8.4200 C   0  0  0  0  0  0  0  0  0  0  0  0
   -5.7627   13.3827    2.9111 H   0  0  0  0  0  0  0  0  0  0  0  0
   -4.8073   14.0974    6.3838 H   0  0  0  0  0  0  0  0  0  0  0  0
   -2.6173   13.6978    5.2854 H   0  0  0  0  0  0  0  0  0  0  0  0
   -3.3690   16.4812    4.9318 H   0  0  0  0  0  0  0  0  0  0  0  0
   -1.8176   15.8816    5.0198 H   0  0  0  0  0  0  0  0  0  0  0  0
   -3.8208   15.0831    2.8265 H   0  0  0  0  0  0  0  0  0  0  0  0
   -1.2532   13.9595    3.2183 H   0  0  0  0  0  0  0  0  0  0  0  0
   -3.0029   12.2270    3.2765 H   0  0  0  0  0  0  0  0  0  0  0  0
   -4.3034   13.3660    1.0142 H   0  0  0  0  0  0  0  0  0  0  0  0
   -4.9426   10.5583    3.4533 H   0  0  0  0  0  0  0  0  0  0  0  0
   -5.6234   11.1815    1.9630 H   0  0  0  0  0  0  0  0  0  0  0  0
   -6.8634   11.1772    4.5345 H   0  0  0  0  0  0  0  0  0  0  0  0
   -7.1902   10.1455    3.2683 H   0  0  0  0  0  0  0  0  0  0  0  0
   -8.4903   18.5250    5.6523 H   0  0  0  0  0  0  0  0  0  0  0  0
  -10.7456   17.4089    7.2773 H   0  0  0  0  0  0  0  0  0  0  0  0
   -8.4034   16.1783    7.5740 H   0  0  0  0  0  0  0  0  0  0  0  0
   -6.1496   17.5575    6.1307 H   0  0  0  0  0  0  0  0  0  0  0  0
   -6.1483   15.3148    7.9351 H   0  0  0  0  0  0  0  0  0  0  0  0
   -7.2599   14.7380    5.8603 H   0  0  0  0  0  0  0  0  0  0  0  0
   -7.2878   17.0422    3.8897 H   0  0  0  0  0  0  0  0  0  0  0  0
   -8.3185   14.3261    3.6818 H   0  0  0  0  0  0  0  0  0  0  0  0
   -6.9920   14.9326    2.8775 H   0  0  0  0  0  0  0  0  0  0  0  0
   -9.7103   16.9913    4.1737 H   0  0  0  0  0  0  0  0  0  0  0  0
   -9.5436   15.7005    5.3607 H   0  0  0  0  0  0  0  0  0  0  0  0
   -9.1185   18.8311    9.5627 H   0  0  0  0  0  0  0  0  0  0  0  0
   -8.3062   20.0041    8.5574 H   0  0  0  0  0  0  0  0  0  0  0  0
   -6.4933   18.3440   10.0900 H   0  0  0  0  0  0  0  0  0  0  0  0
   -7.5996   19.3402   11.0696 H   0  0  0  0  0  0  0  0  0  0  0  0
   -6.6008   20.9046   10.7558 H   0  0  0  0  0  0  0  0  0  0  0  0
   -5.3040   22.2954    9.6624 H   0  0  0  0  0  0  0  0  0  0  0  0
   -4.4524   21.0777    8.9031 H   0  0  0  0  0  0  0  0  0  0  0  0
   -5.1407   20.9993   11.8876 H   0  0  0  0  0  0  0  0  0  0  0  0
   -3.6308   21.6981   11.2885 H   0  0  0  0  0  0  0  0  0  0  0  0
   -3.3646   19.3388   10.1753 H   0  0  0  0  0  0  0  0  0  0  0  0
   -4.4423   18.8568   11.4794 H   0  0  0  0  0  0  0  0  0  0  0  0
   -2.8960   19.8009   13.1113 H   0  0  0  0  0  0  0  0  0  0  0  0
   -1.8171   20.2741   11.8148 H   0  0  0  0  0  0  0  0  0  0  0  0
   -2.6264   17.5467   12.4509 H   0  0  0  0  0  0  0  0  0  0  0  0
   -1.1499   18.2335   12.8010 H   0  0  0  0  0  0  0  0  0  0  0  0
  -14.9422   22.4026    9.0313 H   0  0  0  0  0  0  0  0  0  0  0  0
  -14.7481   22.3170    7.3792 H   0  0  0  0  0  0  0  0  0  0  0  0
  -11.5348   19.1236    8.2003 H   0  0  0  0  0  0  0  0  0  0  0  0
  -12.9645   18.8124    5.8006 H   0  0  0  0  0  0  0  0  0  0  0  0
  -13.1800   20.8383    6.3501 H   0  0  0  0  0  0  0  0  0  0  0  0
  -11.9029   21.5264    7.4213 H   0  0  0  0  0  0  0  0  0  0  0  0
  -14.3925   20.1762    8.3675 H   0  0  0  0  0  0  0  0  0  0  0  0
  -13.1466   20.8621    9.3642 H   0  0  0  0  0  0  0  0  0  0  0  0
  1  2  1  0  0  0  0
  1  9  1  0  0  0  0
  1 11  1  0  0  0  0
  1 38  1  6  0  0  0
  2  3  1  0  0  0  0
  3  4  1  0  0  0  0
  3  5  1  0  0  0  0
  3 39  1  1  0  0  0
  5  6  1  0  0  0  0
  5  7  1  0  0  0  0
  5 40  1  1  0  0  0
  6 41  1  0  0  0  0
  6 42  1  0  0  0  0
  7  8  1  0  0  0  0
  7  9  1  0  0  0  0
  7 43  1  6  0  0  0
  8 44  1  0  0  0  0
  9 10  1  0  0  0  0
  9 45  1  1  0  0  0
 10 46  1  0  0  0  0
 11 12  1  0  0  0  0
 11 47  1  0  0  0  0
 11 48  1  0  0  0  0
 12 49  1  0  0  0  0
 12 50  1  0  0  0  0
 13 14  1  0  0  0  0
 13 15  1  0  0  0  0
 13 22  1  0  0  0  0
 13 51  1  6  0  0  0
 14 52  1  0  0  0  0
 15 16  1  0  0  0  0
 15 17  1  0  0  0  0
 15 53  1  1  0  0  0
 16 23  1  0  0  0  0
 17 18  1  0  0  0  0
 17 19  1  0  0  0  0
 17 54  1  6  0  0  0
 18 55  1  0  0  0  0
 19 20  1  0  0  0  0
 19  4  1  0  0  0  0
 19 56  1  1  0  0  0
 20 21  1  0  0  0  0
 20 22  1  0  0  0  0
 20 57  1  6  0  0  0
 21 58  1  0  0  0  0
 21 59  1  0  0  0  0
 22 60  1  0  0  0  0
 22 61  1  0  0  0  0
 23 24  1  0  0  0  0
 23 62  1  0  0  0  0
 23 63  1  0  0  0  0
 24 25  1  0  0  0  0
 24 64  1  0  0  0  0
 24 65  1  0  0  0  0
 25 26  1  0  0  0  0
 25 66  1  0  0  0  0
 26 27  1  0  0  0  0
 26 67  1  0  0  0  0
 26 68  1  0  0  0  0
 27 28  1  0  0  0  0
 27 69  1  0  0  0  0
 27 70  1  0  0  0  0
 28 29  1  0  0  0  0
 28 71  1  0  0  0  0
 28 72  1  0  0  0  0
 29 30  1  0  0  0  0
 29 73  1  0  0  0  0
 29 74  1  0  0  0  0
 30 75  1  0  0  0  0
 30 76  1  0  0  0  0
 31 37  1  0  0  0  0
 31 77  1  0  0  0  0
 31 78  1  0  0  0  0
 32 33  2  0  0  0  0
 32 34  1  0  0  0  0
 32 14  1  0  0  0  0
 34 35  1  0  0  0  0
 34 36  1  0  0  0  0
 34 79  1  1  0  0  0
 35 80  1  0  0  0  0
 36 37  1  0  0  0  0
 36 81  1  0  0  0  0
 36 82  1  0  0  0  0
 37 83  1  0  0  0  0
 37 84  1  0  0  0  0
M  END
$$$$
