REMARK  15 active torsions:
REMARK  status: ('A' for Active; 'I' for Inactive)
REMARK    1  A    between atoms: C_1  and  C_11 
REMARK    2  A    between atoms: C_3  and  O_4 
REMARK    3  A    between atoms: C_19  and  O_4 
REMARK    4  A    between atoms: C_13  and  N_14 
REMARK       I    between atoms: C_32  and  N_14 
REMARK    5  A    between atoms: C_15  and  O_16 
REMARK    6  A    between atoms: O_16  and  C_23 
REMARK    7  A    between atoms: C_23  and  C_24 
REMARK    8  A    between atoms: C_24  and  N_25 
REMARK    9  A    between atoms: N_25  and  C_26 
REMARK   10  A    between atoms: C_26  and  C_27 
REMARK   11  A    between atoms: C_27  and  C_28 
REMARK   12  A    between atoms: C_28  and  C_29 
REMARK   13  A    between atoms: C_32  and  C_34 
REMARK   14  A    between atoms: C_34  and  C_36 
REMARK   15  A    between atoms: C_36  and  C_37 
ROOT
ATOM      1  C   UNL d   1      -8.907  17.643   6.092  0.00  0.00     0.138 C 
ATOM      2  C   UNL d   1      -7.983  17.070   7.158  0.00  0.00     0.171 C 
ATOM      3  C   UNL d   1      -6.604  16.679   6.539  0.00  0.00     0.210 C 
ATOM      4  O   UNL d   1      -5.735  16.111   7.566  0.00  0.00    -0.218 OA
ATOM      5  C   UNL d   1      -6.820  15.599   5.402  0.00  0.00     0.188 C 
ATOM      6  C   UNL d   1      -7.727  16.167   4.321  0.00  0.00     0.333 C 
ATOM      7  N   UNL d   1      -7.900  15.165   3.280  0.00  0.00     0.619 N 
ATOM      8  C   UNL d   1      -9.091  16.574   4.940  0.00  0.00     0.069 C 
ENDROOT
BRANCH   5   9
ATOM      9  O   UNL d   1      -5.562  15.213   4.778  0.00  0.00    -0.327 OA
BRANCH   9  10
ATOM     10  C   UNL d   1      -4.735  14.137   5.317  0.00  0.00     0.277 C 
ATOM     11  O   UNL d   1      -5.177  12.835   4.805  0.00  0.00    -0.323 OA
ATOM     12  C   UNL d   1      -5.122  12.666   3.381  0.00  0.00     0.194 C 
ATOM     13  C   UNL d   1      -3.691  12.926   2.849  0.00  0.00     0.217 C 
ATOM     14  C   UNL d   1      -3.192  14.345   3.279  0.00  0.00     0.227 C 
ATOM     15  O   UNL d   1      -3.685  12.741   1.424  0.00  0.00    -0.218 OA
ATOM     16  C   UNL d   1      -3.262  14.433   4.851  0.00  0.00     0.390 C 
ATOM     17  O   UNL d   1      -1.860  14.609   2.830  0.00  0.00    -0.218 OA
ATOM     18  N   UNL d   1      -2.782  15.744   5.322  0.00  0.00     0.624 N 
BRANCH  12  19
ATOM     19  C   UNL d   1      -5.605  11.283   3.028  0.00  0.00     0.128 C 
ATOM     20  N   UNL d   1      -6.873  11.082   3.519  0.00  0.00    -0.149 N 
ENDBRANCH  12  19
ENDBRANCH   9  10
ENDBRANCH   5   9
BRANCH   2  21
ATOM     21  O   UNL d   1      -7.832  18.033   8.158  0.00  0.00    -0.349 OA
BRANCH  21  22
ATOM     22  C   UNL d   1      -8.194  19.080   9.085  0.00  0.00     0.183 C 
BRANCH  22  23
ATOM     23  C   UNL d   1      -7.108  19.219  10.127  0.00  0.00     0.213 C 
BRANCH  23  24
ATOM     24  N   UNL d   1      -6.242  20.402   9.944  0.00  0.00    -0.447 NA
BRANCH  24  25
ATOM     25  C   UNL d   1      -5.049  21.262   9.772  0.00  0.00     0.181 C 
BRANCH  25  26
ATOM     26  C   UNL d   1      -4.391  20.963  11.125  0.00  0.00     0.043 C 
BRANCH  26  27
ATOM     27  C   UNL d   1      -3.720  19.577  11.156  0.00  0.00     0.044 C 
BRANCH  27  28
ATOM     28  C   UNL d   1      -2.546  19.557  12.130  0.00  0.00     0.339 C 
ATOM     29  N   UNL d   1      -1.936  18.235  12.151  0.00  0.00     0.618 N 
ENDBRANCH  27  28
ENDBRANCH  26  27
ENDBRANCH  25  26
ENDBRANCH  24  25
ENDBRANCH  23  24
ENDBRANCH  22  23
ENDBRANCH  21  22
ENDBRANCH   2  21
BRANCH   1  30
ATOM     30  N   UNL d   1     -10.201  18.018   6.728  0.00  0.00    -0.235 NA
ATOM     31  C   UNL d   1     -10.637  19.700   6.371  0.00  0.00     0.282 C 
ATOM     32  O   UNL d   1     -10.191  20.498   5.798  0.00  0.00    -0.268 OA
BRANCH  31  33
ATOM     33  C   UNL d   1     -11.851  19.457   7.234  0.00  0.00     0.234 C 
ATOM     34  O   UNL d   1     -12.676  18.513   6.677  0.00  0.00    -0.213 OA
BRANCH  33  35
ATOM     35  C   UNL d   1     -12.637  20.763   7.269  0.00  0.00     0.084 C 
BRANCH  35  36
ATOM     36  C   UNL d   1     -13.644  20.939   8.420  0.00  0.00     0.342 C 
ATOM     37  N   UNL d   1     -14.269  22.262   8.278  0.00  0.00     0.618 N 
ENDBRANCH  35  36
ENDBRANCH  33  35
ENDBRANCH  31  33
ENDBRANCH   1  30
TORSDOF 15
