@<TRIPOS>MOLECULE
ligands/ligand.pdb
 37 38 0 0 0
SMALL
GASTEIGER

@<TRIPOS>ATOM
      1 C          -5.1220   12.6660    3.3810 C.3     1  UNL1        0.1696
      2 O          -5.1770   12.8350    4.8050 O.3     1  UNL1       -0.3276
      3 C          -4.7350   14.1370    5.3170 C.3     1  UNL1        0.2561
      4 O          -5.5620   15.2130    4.7780 O.3     1  UNL1       -0.3277
      5 C          -3.2620   14.4330    4.8510 C.3     1  UNL1        0.1807
      6 N          -2.7820   15.7440    5.3220 N.3     1  UNL1       -0.1248
      7 C          -3.1920   14.3450    3.2790 C.3     1  UNL1        0.2070
      8 O          -1.8600   14.6090    2.8300 O.3     1  UNL1       -0.2186
      9 C          -3.6910   12.9260    2.8490 C.3     1  UNL1        0.2122
     10 O          -3.6850   12.7410    1.4240 O.3     1  UNL1       -0.2177
     11 C          -5.6050   11.2830    3.0280 C.3     1  UNL1        0.1415
     12 N          -6.8730   11.0820    3.5190 N.3     1  UNL1       -0.1286
     13 C          -8.9070   17.6430    6.0920 C.3     1  UNL1        0.1265
     14 N         -10.2010   18.0180    6.7280 N.am    1  UNL1       -0.2024
     15 C          -7.9830   17.0700    7.1580 C.3     1  UNL1        0.1678
     16 O          -7.8320   18.0330    8.1580 O.3     1  UNL1       -0.3503
     17 C          -6.6040   16.6790    6.5390 C.3     1  UNL1        0.2090
     18 O          -5.7350   16.1110    7.5660 O.3     1  UNL1       -0.2178
     19 C          -6.8200   15.5990    5.4020 C.3     1  UNL1        0.1680
     20 C          -7.7270   16.1670    4.3210 C.3     1  UNL1        0.1234
     21 N          -7.9000   15.1650    3.2800 N.3     1  UNL1       -0.1302
     22 C          -9.0910   16.5740    4.9400 C.3     1  UNL1        0.0458
     23 C          -8.1940   19.0800    9.0850 C.3     1  UNL1        0.1610
     24 C          -7.1080   19.2190   10.1270 C.3     1  UNL1        0.1207
     25 N          -6.2420   20.4020    9.9440 N.3     1  UNL1       -0.2154
     26 C          -5.0490   21.2620    9.7720 C.3     1  UNL1        0.0888
     27 C          -4.3910   20.9630   11.1250 C.3     1  UNL1        0.0203
     28 C          -3.7200   19.5770   11.1560 C.3     1  UNL1        0.0220
     29 C          -2.5460   19.5570   12.1300 C.3     1  UNL1        0.1094
     30 N          -1.9360   18.2350   12.1510 N.3     1  UNL1       -0.1314
     31 N         -14.2690   22.2620    8.2780 N.3     1  UNL1       -0.1313
     32 C         -10.6370   19.7000    6.3710 C.2     1  UNL1        0.2719
     33 O         -10.1910   20.4980    5.7980 O.2     1  UNL1       -0.2706
     34 C         -11.8510   19.4570    7.2340 C.3     1  UNL1        0.2305
     35 O         -12.6760   18.5130    6.6770 O.3     1  UNL1       -0.2131
     36 C         -12.6370   20.7630    7.2690 C.3     1  UNL1        0.0630
     37 C         -13.6440   20.9390    8.4200 C.3     1  UNL1        0.1124
@<TRIPOS>BOND
     1     1     2    1
     2     1     9    1
     3     1    11    1
     4     2     3    1
     5     3     4    1
     6     3     5    1
     7     5     6    1
     8     5     7    1
     9     7     8    1
    10     7     9    1
    11     9    10    1
    12    11    12    1
    13    13    14    1
    14    13    15    1
    15    13    22    1
    16    15    16    1
    17    15    17    1
    18    16    23    1
    19    17    18    1
    20    17    19    1
    21    19    20    1
    22    19     4    1
    23    20    21    1
    24    20    22    1
    25    23    24    1
    26    24    25    1
    27    25    26    1
    28    26    27    1
    29    27    28    1
    30    28    29    1
    31    29    30    1
    32    31    37    1
    33    32    33    2
    34    32    34    1
    35    32    14   am
    36    34    35    1
    37    34    36    1
    38    36    37    1
