REMARK  9 active torsions:
REMARK  status: ('A' for Active; 'I' for Inactive)
REMARK    1  A    between atoms: C_1  and  N_2 
REMARK    2  A    between atoms: C_8  and  N_9 
REMARK    3  A    between atoms: C_13  and  O_14 
REMARK    4  A    between atoms: C_19  and  O_14 
REMARK    5  A    between atoms: C_20  and  O_28 
REMARK    6  A    between atoms: C_21  and  C_23 
REMARK    7  A    between atoms: C_29  and  O_28 
REMARK    8  A    between atoms: C_30  and  N_31 
REMARK    9  A    between atoms: C_37  and  C_39 
ROOT
ATOM      1  C   UNL d   1       1.451  35.087  -1.593  0.00  0.00     0.267 C 
ATOM      2  C   UNL d   1       0.436  36.009  -2.260  0.00  0.00     0.211 C 
ATOM      3  C   UNL d   1      -0.011  35.173  -3.379  0.00  0.00     0.238 C 
ATOM      4  O   UNL d   1      -1.371  34.816  -3.124  0.00  0.00    -0.213 OA
ATOM      5  C   UNL d   1       0.795  33.946  -3.401  0.00  0.00     0.156 C 
ATOM      6  C   UNL d   1       0.177  32.698  -3.951  0.00  0.00     0.035 C 
ATOM      7  O   UNL d   1       1.203  33.777  -2.049  0.00  0.00    -0.329 OA
ENDROOT
BRANCH   1   8
ATOM      8  O   UNL d   1       2.724  35.481  -2.135  0.00  0.00    -0.327 OA
BRANCH   8   9
ATOM      9  C   UNL d   1       3.786  34.772  -1.516  0.00  0.00     0.176 C 
ATOM     10  C   UNL d   1       4.712  35.791  -0.871  0.00  0.00     0.184 C 
ATOM     11  C   UNL d   1       5.865  35.030  -0.203  0.00  0.00     0.203 C 
ATOM     12  C   UNL d   1       6.651  34.161  -1.203  0.00  0.00     0.187 C 
ATOM     13  O   UNL d   1       6.753  35.981   0.302  0.00  0.00    -0.219 OA
ATOM     14  C   UNL d   1       5.708  33.167  -1.847  0.00  0.00     0.210 C 
ATOM     15  C   UNL d   1       4.566  33.922  -2.559  0.00  0.00     0.213 C 
ATOM     16  O   UNL d   1       6.441  32.374  -2.795  0.00  0.00    -0.218 OA
ATOM     17  O   UNL d   1       3.679  32.980  -3.160  0.00  0.00    -0.218 OA
BRANCH  10  18
ATOM     18  N   UNL d   1       3.930  36.635   0.064  0.00  0.00    -0.080 NA
ATOM     19  C   UNL d   1       3.954  36.163   1.265  0.00  0.00     0.782 C 
ATOM     20  N   UNL d   1       4.748  35.211   1.681  0.00  0.00     0.063 N 
ATOM     21  N   UNL d   1       3.107  36.677   2.068  0.00  0.00     0.063 N 
ENDBRANCH  10  18
BRANCH  12  22
ATOM     22  N   UNL d   1       7.760  33.416  -0.486  0.00  0.00    -0.080 NA
ATOM     23  C   UNL d   1       8.902  33.432  -1.157  0.00  0.00     0.782 C 
ATOM     24  N   UNL d   1       9.591  34.506  -1.048  0.00  0.00     0.063 N 
ATOM     25  N   UNL d   1       9.292  32.429  -1.867  0.00  0.00     0.063 N 
ENDBRANCH  12  22
ENDBRANCH   8   9
ENDBRANCH   1   8
BRANCH   2  26
ATOM     26  O   UNL d   1      -0.430  36.466  -1.371  0.00  0.00    -0.324 OA
BRANCH  26  27
ATOM     27  C   UNL d   1       0.183  37.124  -0.318  0.00  0.00     0.274 C 
ATOM     28  C   UNL d   1       0.101  38.634  -0.362  0.00  0.00     0.345 C 
ATOM     29  C   UNL d   1      -1.212  39.067  -0.241  0.00  0.00     0.224 C 
ATOM     30  O   UNL d   1      -1.183  40.450   0.007  0.00  0.00    -0.218 OA
ATOM     31  C   UNL d   1      -1.892  38.365   0.905  0.00  0.00     0.214 C 
ATOM     32  O   UNL d   1      -3.262  38.635   0.854  0.00  0.00    -0.218 OA
ATOM     33  C   UNL d   1      -1.700  36.892   0.779  0.00  0.00     0.184 C 
ATOM     34  O   UNL d   1      -0.327  36.633   0.835  0.00  0.00    -0.326 OA
BRANCH  28  35
ATOM     35  N   UNL d   1       0.622  39.082  -1.607  0.00  0.00     0.347 N 
ATOM     36  C   UNL d   1       2.032  39.369  -1.403  0.00  0.00     0.328 C 
ENDBRANCH  28  35
BRANCH  33  37
ATOM     37  C   UNL d   1      -2.366  36.138   1.947  0.00  0.00     0.214 C 
ATOM     38  O   UNL d   1      -2.278  36.930   3.126  0.00  0.00    -0.218 OA
ENDBRANCH  33  37
ENDBRANCH  26  27
ENDBRANCH   2  26
BRANCH   3  39
ATOM     39  C   UNL d   1       0.141  35.947  -4.661  0.00  0.00     0.242 C 
ATOM     40  O   UNL d   1      -0.096  35.511  -5.766  0.00  0.00    -0.285 OA
ENDBRANCH   3  39
TORSDOF 9
