1NTA_SRY_A_26
 OpenBabel10281720353D
Coordinates from PDB:1NTA:A:26 Model:1 without hydrogens
 79 81  0  0  0  0  0  0  0  0999 V2000
    6.6510   34.1610   -1.2030 C   0  0  2  0  0  0  0  0  0  0  0  0
    7.7600   33.4160   -0.4860 N   0  0  0  0  0  0  0  0  0  0  0  0
    8.9020   33.4320   -1.1570 C   0  0  0  0  0  0  0  0  0  0  0  0
    9.5910   34.5060   -1.0480 N   0  0  0  0  0  0  0  0  0  0  0  0
    9.2920   32.4290   -1.8670 N   0  0  0  0  0  0  0  0  0  0  0  0
    5.8650   35.0300   -0.2030 C   0  0  1  0  0  0  0  0  0  0  0  0
    6.7530   35.9810    0.3020 O   0  0  0  0  0  0  0  0  0  0  0  0
    4.7120   35.7910   -0.8710 C   0  0  2  0  0  0  0  0  0  0  0  0
    3.9300   36.6350    0.0640 N   0  0  0  0  0  0  0  0  0  0  0  0
    3.9540   36.1630    1.2650 C   0  0  0  0  0  0  0  0  0  0  0  0
    4.7480   35.2110    1.6810 N   0  0  0  0  0  0  0  0  0  0  0  0
    3.1070   36.6770    2.0680 N   0  0  0  0  0  0  0  0  0  0  0  0
    3.7860   34.7720   -1.5160 C   0  0  1  0  0  0  0  0  0  0  0  0
    2.7240   35.4810   -2.1350 O   0  0  0  0  0  0  0  0  0  0  0  0
    4.5660   33.9220   -2.5590 C   0  0  2  0  0  0  0  0  0  0  0  0
    3.6790   32.9800   -3.1600 O   0  0  0  0  0  0  0  0  0  0  0  0
    5.7080   33.1670   -1.8470 C   0  0  1  0  0  0  0  0  0  0  0  0
    6.4410   32.3740   -2.7950 O   0  0  0  0  0  0  0  0  0  0  0  0
    1.4510   35.0870   -1.5930 C   0  0  1  0  0  0  0  0  0  0  0  0
    0.4360   36.0090   -2.2600 C   0  0  1  0  0  0  0  0  0  0  0  0
   -0.0110   35.1730   -3.3790 C   0  0  1  0  0  0  0  0  0  0  0  0
   -1.3710   34.8160   -3.1240 O   0  0  0  0  0  0  0  0  0  0  0  0
    0.1410   35.9470   -4.6610 C   0  0  0  0  0  0  0  0  0  0  0  0
   -0.0960   35.5110   -5.7660 O   0  0  0  0  0  0  0  0  0  0  0  0
    0.7950   33.9460   -3.4010 C   0  0  2  0  0  0  0  0  0  0  0  0
    0.1770   32.6980   -3.9510 C   0  0  0  0  0  0  0  0  0  0  0  0
    1.2030   33.7770   -2.0490 O   0  0  0  0  0  0  0  0  0  0  0  0
   -0.4300   36.4660   -1.3710 O   0  0  0  0  0  0  0  0  0  0  0  0
    0.1830   37.1240   -0.3180 C   0  0  1  0  0  0  0  0  0  0  0  0
    0.1010   38.6340   -0.3620 C   0  0  1  0  0  0  0  0  0  0  0  0
    0.6220   39.0820   -1.6070 N   0  0  0  0  0  0  0  0  0  0  0  0
    2.0320   39.3690   -1.4030 C   0  0  0  0  0  0  0  0  0  0  0  0
   -1.2120   39.0670   -0.2410 C   0  0  2  0  0  0  0  0  0  0  0  0
   -1.1830   40.4500    0.0070 O   0  0  0  0  0  0  0  0  0  0  0  0
   -1.8920   38.3650    0.9050 C   0  0  1  0  0  0  0  0  0  0  0  0
   -3.2620   38.6350    0.8540 O   0  0  0  0  0  0  0  0  0  0  0  0
   -1.7000   36.8920    0.7790 C   0  0  1  0  0  0  0  0  0  0  0  0
   -0.3270   36.6330    0.8350 O   0  0  0  0  0  0  0  0  0  0  0  0
   -2.3660   36.1380    1.9470 C   0  0  0  0  0  0  0  0  0  0  0  0
   -2.2780   36.9300    3.1260 O   0  0  0  0  0  0  0  0  0  0  0  0
    7.0835   34.7896   -1.9531 H   0  0  0  0  0  0  0  0  0  0  0  0
    7.6440   32.9691    0.3835 H   0  0  0  0  0  0  0  0  0  0  0  0
    9.2586   35.2502   -0.4958 H   0  0  0  0  0  0  0  0  0  0  0  0
   10.4531   34.5874   -1.5164 H   0  0  0  0  0  0  0  0  0  0  0  0
    8.7333   31.6205   -1.9255 H   0  0  0  0  0  0  0  0  0  0  0  0
    5.4533   34.3910    0.5501 H   0  0  0  0  0  0  0  0  0  0  0  0
    7.0904   36.5268   -0.4255 H   0  0  0  0  0  0  0  0  0  0  0  0
    5.1424   36.4581   -1.5883 H   0  0  0  0  0  0  0  0  0  0  0  0
    3.4515   37.4543   -0.1988 H   0  0  0  0  0  0  0  0  0  0  0  0
    5.4032   34.8117    1.0641 H   0  0  0  0  0  0  0  0  0  0  0  0
    4.6907   34.8935    2.6111 H   0  0  0  0  0  0  0  0  0  0  0  0
    2.5075   37.3940    1.7585 H   0  0  0  0  0  0  0  0  0  0  0  0
    3.3957   34.1003   -0.7803 H   0  0  0  0  0  0  0  0  0  0  0  0
    4.9728   34.5622   -3.3136 H   0  0  0  0  0  0  0  0  0  0  0  0
    3.3107   32.4001   -2.4751 H   0  0  0  0  0  0  0  0  0  0  0  0
    5.2857   32.5286   -1.0993 H   0  0  0  0  0  0  0  0  0  0  0  0
    6.8239   32.9525   -3.4730 H   0  0  0  0  0  0  0  0  0  0  0  0
    1.4104   35.1350   -0.5248 H   0  0  0  0  0  0  0  0  0  0  0  0
    0.7687   36.9473   -2.6522 H   0  0  0  0  0  0  0  0  0  0  0  0
   -1.9177   35.6171   -3.1063 H   0  0  0  0  0  0  0  0  0  0  0  0
    0.4719   36.9222   -4.5935 H   0  0  0  0  0  0  0  0  0  0  0  0
    1.5891   34.0832   -4.1049 H   0  0  0  0  0  0  0  0  0  0  0  0
   -0.6576   32.4158   -3.3438 H   0  0  0  0  0  0  0  0  0  0  0  0
    0.9015   31.9106   -3.9495 H   0  0  0  0  0  0  0  0  0  0  0  0
   -0.1545   32.8757   -4.9527 H   0  0  0  0  0  0  0  0  0  0  0  0
    1.2329   36.9317   -0.3933 H   0  0  0  0  0  0  0  0  0  0  0  0
    0.6660   39.0330    0.4544 H   0  0  0  0  0  0  0  0  0  0  0  0
    0.1334   39.9254   -1.9074 H   0  0  0  0  0  0  0  0  0  0  0  0
    2.5353   38.4787   -1.0883 H   0  0  0  0  0  0  0  0  0  0  0  0
    2.1374   40.1230   -0.6511 H   0  0  0  0  0  0  0  0  0  0  0  0
    2.4614   39.7166   -2.3193 H   0  0  0  0  0  0  0  0  0  0  0  0
   -1.7550   38.8499   -1.1370 H   0  0  0  0  0  0  0  0  0  0  0  0
   -0.6865   40.6219    0.8224 H   0  0  0  0  0  0  0  0  0  0  0  0
   -1.4733   38.7089    1.8277 H   0  0  0  0  0  0  0  0  0  0  0  0
   -3.6232   38.3166    0.0119 H   0  0  0  0  0  0  0  0  0  0  0  0
   -2.1388   36.5650   -0.1405 H   0  0  0  0  0  0  0  0  0  0  0  0
   -1.8643   35.2060    2.1037 H   0  0  0  0  0  0  0  0  0  0  0  0
   -3.3938   35.9516    1.7151 H   0  0  0  0  0  0  0  0  0  0  0  0
   -1.3455   37.0976    3.3341 H   0  0  0  0  0  0  0  0  0  0  0  0
  1  2  1  0  0  0  0
  1  6  1  0  0  0  0
  1 17  1  0  0  0  0
  1 41  1  6  0  0  0
  2  3  1  0  0  0  0
  2 42  1  0  0  0  0
  3  4  1  0  0  0  0
  3  5  2  0  0  0  0
  4 43  1  0  0  0  0
  4 44  1  0  0  0  0
  5 45  1  0  0  0  0
  6  7  1  0  0  0  0
  6  8  1  0  0  0  0
  6 46  1  1  0  0  0
  7 47  1  0  0  0  0
  8  9  1  0  0  0  0
  8 13  1  0  0  0  0
  8 48  1  6  0  0  0
  9 10  1  0  0  0  0
  9 49  1  0  0  0  0
 10 11  1  0  0  0  0
 10 12  2  0  0  0  0
 11 50  1  0  0  0  0
 11 51  1  0  0  0  0
 12 52  1  0  0  0  0
 13 14  1  0  0  0  0
 13 15  1  0  0  0  0
 13 53  1  1  0  0  0
 15 16  1  0  0  0  0
 15 17  1  0  0  0  0
 15 54  1  6  0  0  0
 16 55  1  0  0  0  0
 17 18  1  0  0  0  0
 17 56  1  1  0  0  0
 18 57  1  0  0  0  0
 19 14  1  0  0  0  0
 19 20  1  0  0  0  0
 19 27  1  0  0  0  0
 19 58  1  1  0  0  0
 20 21  1  0  0  0  0
 20 28  1  0  0  0  0
 20 59  1  6  0  0  0
 21 22  1  1  0  0  0
 21 23  1  0  0  0  0
 21 25  1  0  0  0  0
 22 60  1  0  0  0  0
 23 24  2  0  0  0  0
 23 61  1  0  0  0  0
 25 26  1  0  0  0  0
 25 27  1  0  0  0  0
 25 62  1  6  0  0  0
 26 63  1  0  0  0  0
 26 64  1  0  0  0  0
 26 65  1  0  0  0  0
 29 28  1  0  0  0  0
 29 30  1  0  0  0  0
 29 38  1  0  0  0  0
 29 66  1  6  0  0  0
 30 31  1  0  0  0  0
 30 33  1  0  0  0  0
 30 67  1  1  0  0  0
 31 32  1  0  0  0  0
 31 68  1  0  0  0  0
 32 69  1  0  0  0  0
 32 70  1  0  0  0  0
 32 71  1  0  0  0  0
 33 34  1  0  0  0  0
 33 35  1  0  0  0  0
 33 72  1  6  0  0  0
 34 73  1  0  0  0  0
 35 36  1  0  0  0  0
 35 37  1  0  0  0  0
 35 74  1  1  0  0  0
 36 75  1  0  0  0  0
 37 38  1  0  0  0  0
 37 39  1  0  0  0  0
 37 76  1  6  0  0  0
 39 40  1  0  0  0  0
 39 77  1  0  0  0  0
 39 78  1  0  0  0  0
 40 79  1  0  0  0  0
A    1
C11
A    2
N11
A    3
CA1
A    4
NB1
A    5
NC1
A    6
C21
A    7
O21
A    8
C31
A    9
N31
A   10
CD1
A   11
NE1
A   12
NF1
A   13
C41
A   14
O41
A   15
C51
A   16
O51
A   17
C61
A   18
O61
A   19
C12
A   20
C22
A   21
C32
A   22
O32
A   23
CG2
A   24
OG2
A   25
C42
A   26
CH2
A   27
O42
A   28
O13
A   29
C13
A   30
C23
A   31
N23
A   32
CI3
A   33
C33
A   34
O33
A   35
C43
A   36
O43
A   37
C53
A   38
O53
A   39
C63
A   40
O63
M  END
>  <InstanceId>
1NTA_SRY_A_26

>  <ChemCompId>
SRY

>  <PdbId>
1NTA

>  <ChainId>
A

>  <ResidueNumber>
26

>  <InsertionCode>


>  <Model>
1

>  <AltIds>


>  <MissingHeavyAtoms>
0

>  <ObservedFormula>
C21 N7 O12

>  <Name>
STREPTOMYCIN

>  <SystematicName>
1-[(1R,2R,3S,4R,5R,6S)-3-carbamimidamido-4-[(2R,3R,4R,5S)-3-[(2S,3S,4S,5R,6S)-4,5-dihydroxy-6-(hydroxymethyl)-3-methylamino-oxan-2-yl]oxy-4-hydroxy-4-methanoyl-5-methyl-oxolan-2-yl]oxy-2,5,6-trihydroxy-cyclohexyl]guanidine

>  <Synonyms>
STREPTOMYCIN A

>  <Type>
NON-POLYMER

>  <Formula>
C21 H39 N7 O12

>  <MolecularWeight>
581.574

>  <ModifiedDate>
2012-01-05

>  <Parent>


>  <OneLetterCode>


>  <SubcomponentList>


>  <AmbiguousFlag>
N

>  <InChI>
InChI=1S/C21H39N7O12/c1-5-21(36,4-30)16(40-17-9(26-2)13(34)10(31)6(3-29)38-17)18(37-5)39-15-8(28-20(24)25)11(32)7(27-19(22)23)12(33)14(15)35/h4-18,26,29,31-36H,3H2,1-2H3,(H4,22,23,27)(H4,24,25,28)/t5-,6-,7+,8-,9-,10-,11+,12-,13-,14+,15+,16-,17-,18-,21+/m0/s1

>  <InChIKey>
UCSJYZPVAKXKNQ-HZYVHMACSA-N

>  <SMILES>
[H]/N=C(/N)\N[C@@H]1[C@H]([C@@H]([C@H]([C@@H]([C@H]1O)O)O[C@H]2[C@@H]([C@]([C@@H](O2)C)(C=O)O)O[C@H]3[C@H]([C@@H]([C@H]([C@@H](O3)CO)O)O)NC)N/C(=N\[H])/N)O

$$$$
