@<TRIPOS>MOLECULE
1NTA_SRY_A_26
 40 42 0 0 0
SMALL
GASTEIGER
****
Coordinates from PDB:1NTA:A:26 Model:1 without hydrogens
@<TRIPOS>ATOM
      1 C           6.6510   34.1610   -1.2030 C.3     1  UNL1        0.2474
      2 N           7.7600   33.4160   -0.4860 N.pl3   1  UNL1       -0.0846
      3 C           8.9020   33.4320   -1.1570 C.cat   1  UNL1        0.5346
      4 N           9.5910   34.5060   -1.0480 N.pl3   1  UNL1        0.1354
      5 N           9.2920   32.4290   -1.8670 N.pl3   1  UNL1        0.1354
      6 C           5.8650   35.0300   -0.2030 C.3     1  UNL1        0.2360
      7 O           6.7530   35.9810    0.3020 O.3     1  UNL1       -0.2154
      8 C           4.7120   35.7910   -0.8710 C.3     1  UNL1        0.2442
      9 N           3.9300   36.6350    0.0640 N.pl3   1  UNL1       -0.0847
     10 C           3.9540   36.1630    1.2650 C.cat   1  UNL1        0.5346
     11 N           4.7480   35.2110    1.6810 N.pl3   1  UNL1        0.1354
     12 N           3.1070   36.6770    2.0680 N.pl3   1  UNL1        0.1354
     13 C           3.7860   34.7720   -1.5160 C.3     1  UNL1        0.1929
     14 O           2.7240   35.4810   -2.1350 O.3     1  UNL1       -0.3247
     15 C           4.5660   33.9220   -2.5590 C.3     1  UNL1        0.2162
     16 O           3.6790   32.9800   -3.1600 O.3     1  UNL1       -0.2175
     17 C           5.7080   33.1670   -1.8470 C.3     1  UNL1        0.2268
     18 O           6.4410   32.3740   -2.7950 O.3     1  UNL1       -0.2165
     19 C           1.4510   35.0870   -1.5930 C.3     1  UNL1        0.2666
     20 C           0.4360   36.0090   -2.2600 C.3     1  UNL1        0.2110
     21 C          -0.0110   35.1730   -3.3790 C.3     1  UNL1        0.2380
     22 O          -1.3710   34.8160   -3.1240 O.3     1  UNL1       -0.2124
     23 C           0.1410   35.9470   -4.6610 C.2     1  UNL1        0.2421
     24 O          -0.0960   35.5110   -5.7660 O.2     1  UNL1       -0.2854
     25 C           0.7950   33.9460   -3.4010 C.3     1  UNL1        0.1554
     26 C           0.1770   32.6980   -3.9510 C.3     1  UNL1        0.0353
     27 O           1.2030   33.7770   -2.0490 O.3     1  UNL1       -0.3281
     28 O          -0.4300   36.4660   -1.3710 O.3     1  UNL1       -0.3236
     29 C           0.1830   37.1240   -0.3180 C.3     1  UNL1        0.2546
     30 C           0.1010   38.6340   -0.3620 C.3     1  UNL1        0.1620
     31 N           0.6220   39.0820   -1.6070 N.3     1  UNL1       -0.2103
     32 C           2.0320   39.3690   -1.4030 C.3     1  UNL1        0.1077
     33 C          -1.2120   39.0670   -0.2410 C.3     1  UNL1        0.2054
     34 O          -1.1830   40.4500    0.0070 O.3     1  UNL1       -0.2186
     35 C          -1.8920   38.3650    0.9050 C.3     1  UNL1        0.2132
     36 O          -3.2620   38.6350    0.8540 O.3     1  UNL1       -0.2176
     37 C          -1.7000   36.8920    0.7790 C.3     1  UNL1        0.1834
     38 O          -0.3270   36.6330    0.8350 O.3     1  UNL1       -0.3265
     39 C          -2.3660   36.1380    1.9470 C.3     1  UNL1        0.2142
     40 O          -2.2780   36.9300    3.1260 O.3     1  UNL1       -0.2176
@<TRIPOS>BOND
     1     1     2    1
     2     1     6    1
     3     1    17    1
     4     2     3    1
     5     3     4    1
     6     3     5    2
     7     6     7    1
     8     6     8    1
     9     8     9    1
    10     8    13    1
    11     9    10    1
    12    10    11    1
    13    10    12    2
    14    13    14    1
    15    13    15    1
    16    15    16    1
    17    15    17    1
    18    17    18    1
    19    19    14    1
    20    19    20    1
    21    19    27    1
    22    20    21    1
    23    20    28    1
    24    21    22    1
    25    21    23    1
    26    21    25    1
    27    23    24    2
    28    25    26    1
    29    25    27    1
    30    29    28    1
    31    29    30    1
    32    29    38    1
    33    30    31    1
    34    30    33    1
    35    31    32    1
    36    33    34    1
    37    33    35    1
    38    35    36    1
    39    35    37    1
    40    37    38    1
    41    37    39    1
    42    39    40    1
