@<TRIPOS>MOLECULE
2ESJ_LIV_A_50
 107 111 0 0 0
SMALL
GASTEIGER

@<TRIPOS>ATOM
      1 C          -2.7395   -8.0388    4.2561 C.3     1  UNL1        0.1752
      2 H          -3.7584   -7.7315    4.1161 H       1  UNL1        0.0926
      3 O          -3.0055   -8.7684    3.0545 O.3     1  UNL1       -0.3423
      4 C          -2.9985  -10.1475    2.6559 C.3     1  UNL1        0.1055
      5 H          -3.1150  -10.7777    3.5417 H       1  UNL1        0.0639
      6 C          -4.2994  -10.1790    1.5594 C.3     1  UNL1        0.1166
      7 H          -4.7503   -9.1682    1.6788 H       1  UNL1        0.0650
      8 C          -3.8150  -10.3951    0.0467 C.3     1  UNL1        0.0990
      9 H          -4.1202  -10.4206   -1.0101 H       1  UNL1        0.0636
     10 C          -2.4060  -11.3505   -0.1938 C.3     1  UNL1        0.0351
     11 H          -3.0416  -11.6467   -1.0050 H       1  UNL1        0.0485
     12 N          -1.9626  -12.6685   -0.8708 N.3     1  UNL1       -0.3250
     13 C          -1.8148  -11.7588    1.1460 C.3     1  UNL1       -0.0175
     14 C          -1.6683  -10.5143    1.9714 C.3     1  UNL1        0.0355
     15 H          -1.5062   -9.6354    1.2150 H       1  UNL1        0.0485
     16 N          -0.6095  -10.3625    2.9559 N.3     1  UNL1       -0.3250
     17 O          -3.9556   -8.8919   -0.2949 O.3     1  UNL1       -0.3876
     18 O          -5.4273  -11.0462    1.8547 O.3     1  UNL1       -0.3402
     19 C          -4.9619  -12.3660    2.0892 C.3     1  UNL1        0.1884
     20 H          -3.9475  -12.2154    1.8776 H       1  UNL1        0.0938
     21 C          -4.9890  -12.9080    3.4972 C.3     1  UNL1        0.1345
     22 H          -5.7536  -13.1955    4.1417 H       1  UNL1        0.0671
     23 O          -4.9645  -11.8153    4.3724 O.3     1  UNL1       -0.3841
     24 C          -4.9562  -14.4179    3.1543 C.3     1  UNL1        0.1205
     25 H          -5.7619  -14.5864    2.5007 H       1  UNL1        0.0651
     26 C          -4.2823  -14.6184    1.7656 C.3     1  UNL1        0.1135
     27 H          -3.6379  -14.0382    1.1417 H       1  UNL1        0.0647
     28 O          -5.1055  -13.4260    1.1538 O.3     1  UNL1       -0.3405
     29 C          -2.7743  -14.9719    2.2029 C.3     1  UNL1        0.0730
     30 O          -2.7039  -16.3483    2.5457 O.3     1  UNL1       -0.3924
     31 O          -5.9155  -15.2335    3.9260 O.3     1  UNL1       -0.3410
     32 C          -7.3638  -14.8625    3.6554 C.3     1  UNL1        0.1776
     33 H          -7.8587  -15.6081    4.2780 H       1  UNL1        0.0927
     34 C          -7.9824  -15.0761    2.2072 C.3     1  UNL1        0.0853
     35 H          -9.1148  -15.5687    2.3904 H       1  UNL1        0.0535
     36 C          -8.5797  -13.7348    1.5565 C.3     1  UNL1        0.1036
     37 H          -7.7307  -13.0289    1.1861 H       1  UNL1        0.0637
     38 C          -9.6885  -13.2515    2.7880 C.3     1  UNL1        0.1165
     39 H         -10.4776  -14.0430    2.6279 H       1  UNL1        0.0650
     40 O         -10.3725  -12.0526    2.4187 O.3     1  UNL1       -0.3402
     41 C         -11.2845  -11.4394    3.3460 C.3     1  UNL1        0.1884
     42 H         -11.5410  -12.1414    4.1687 H       1  UNL1        0.0938
     43 C         -12.6473  -10.9350    2.7178 C.3     1  UNL1        0.1341
     44 H         -13.7181  -10.8406    2.6349 H       1  UNL1        0.0671
     45 C         -13.2732   -9.9702    4.0026 C.3     1  UNL1        0.1141
     46 H         -13.6235   -9.0042    3.5087 H       1  UNL1        0.0648
     47 C         -12.2597   -9.3793    4.9949 C.3     1  UNL1        0.1119
     48 H         -11.3215   -9.2685    5.5798 H       1  UNL1        0.0647
     49 C         -11.2610   -9.1021    3.8186 C.3     1  UNL1        0.1130
     50 H         -11.7522   -9.2567    2.8908 H       1  UNL1        0.0647
     51 C         -10.7137   -7.9033    3.1346 C.3     1  UNL1        0.0730
     52 O         -10.5503   -6.7565    3.9026 O.3     1  UNL1       -0.3924
     53 O         -10.4725  -10.3415    3.8458 O.3     1  UNL1       -0.3405
     54 O         -13.0150   -8.5686    5.8600 O.3     1  UNL1       -0.3865
     55 O         -14.4645  -10.4432    4.5727 O.3     1  UNL1       -0.3864
     56 O         -13.0121  -11.9732    1.8153 O.3     1  UNL1       -0.3841
     57 C          -9.0939  -13.4905    4.2248 C.3     1  UNL1        0.1026
     58 H          -9.4382  -14.5234    4.2976 H       1  UNL1        0.0636
     59 O          -7.6694  -13.5323    4.1344 O.3     1  UNL1       -0.3425
     60 C          -9.5566  -13.1855    5.6584 C.3     1  UNL1        0.0222
     61 N          -9.5375  -11.8541    6.2015 N.3     1  UNL1       -0.3276
     62 O          -9.5279  -13.6741    0.4368 O.3     1  UNL1       -0.3874
     63 N          -7.4504  -16.2915    1.6217 N.3     1  UNL1       -0.3211
     64 C          -1.8635   -6.8283    3.8899 C.3     1  UNL1        0.0590
     65 H          -2.5864   -6.1768    3.3951 H       1  UNL1        0.0509
     66 N          -0.8222   -7.1581    2.9237 N.3     1  UNL1       -0.3231
     67 C          -1.2123   -6.0213    4.9944 C.3     1  UNL1       -0.0044
     68 C          -2.1365   -5.7943    6.1593 C.3     1  UNL1        0.0851
     69 H          -2.3285   -4.7270    6.0942 H       1  UNL1        0.0620
     70 O          -1.4814   -5.9507    7.4178 O.3     1  UNL1       -0.3891
     71 C          -3.4224   -6.6183    6.1672 C.3     1  UNL1        0.1105
     72 H          -3.7015   -7.1567    7.0695 H       1  UNL1        0.0646
     73 O          -3.1645   -7.9986    5.6566 O.3     1  UNL1       -0.3417
     74 C          -4.4615   -5.5708    6.8049 C.3     1  UNL1        0.0729
     75 O          -4.5662   -4.3326    6.0880 O.3     1  UNL1       -0.3924
     76 H          -1.5586  -12.3914   -1.7836 H       1  UNL1        0.1185
     77 H          -2.7005  -13.3266   -1.0910 H       1  UNL1        0.1185
     78 H          -2.3371  -12.4994    1.7494 H       1  UNL1        0.0297
     79 H          -0.8514  -12.3532    1.0986 H       1  UNL1        0.0297
     80 H          -0.1350   -9.4783    2.8074 H       1  UNL1        0.1185
     81 H           0.1705  -11.0229    2.9881 H       1  UNL1        0.1185
     82 H          -4.2814   -8.7739   -1.1901 H       1  UNL1        0.2100
     83 H          -5.8709  -11.4282    4.3120 H       1  UNL1        0.2101
     84 H          -2.3962  -14.3907    3.0677 H       1  UNL1        0.0584
     85 H          -2.0381  -14.8434    1.3821 H       1  UNL1        0.0584
     86 H          -1.7578  -16.6009    2.5514 H       1  UNL1        0.2095
     87 H         -11.4334   -7.6290    2.3269 H       1  UNL1        0.0584
     88 H          -9.8054   -8.1589    2.5688 H       1  UNL1        0.0584
     89 H         -10.7762   -6.0262    3.2777 H       1  UNL1        0.2095
     90 H         -12.8216   -8.9090    6.7843 H       1  UNL1        0.2100
     91 H         -15.1596   -9.7467    4.4492 H       1  UNL1        0.2100
     92 H         -13.2620  -11.5132    0.9808 H       1  UNL1        0.2101
     93 H         -10.5498  -13.6223    5.8041 H       1  UNL1        0.0448
     94 H          -8.9086  -13.7720    6.3179 H       1  UNL1        0.0448
     95 H         -10.4815  -11.6127    6.5100 H       1  UNL1        0.1183
     96 H          -9.2768  -11.1697    5.5008 H       1  UNL1        0.1183
     97 H          -9.6123  -12.7009    0.2935 H       1  UNL1        0.2100
     98 H          -6.4228  -16.2954    1.4207 H       1  UNL1        0.1187
     99 H          -7.9432  -16.8436    1.0406 H       1  UNL1        0.1187
    100 H          -1.2171   -7.8084    2.2399 H       1  UNL1        0.1186
    101 H          -0.6095   -6.3166    2.3906 H       1  UNL1        0.1186
    102 H          -1.0521   -5.0307    4.5288 H       1  UNL1        0.0308
    103 H          -0.2074   -6.3124    5.3329 H       1  UNL1        0.0308
    104 H          -1.3476   -5.0642    7.7560 H       1  UNL1        0.2099
    105 H          -4.0314   -5.2958    7.8056 H       1  UNL1        0.0584
    106 H          -5.4694   -5.9284    7.0130 H       1  UNL1        0.0584
    107 H          -3.8538   -3.7341    6.3935 H       1  UNL1        0.2095
@<TRIPOS>BOND
     1     1    64    1
     2     1    73    1
     3     1     3    1
     4     1     2    1
     5     3     4    1
     6     4     5    1
     7     4     6    1
     8     6     8    1
     9     6    18    1
    10     6     7    1
    11     8    10    1
    12     8    17    1
    13     8     9    1
    14    10    11    1
    15    10    12    1
    16    10    13    1
    17    12    76    1
    18    12    77    1
    19    13    14    1
    20    13    78    1
    21    13    79    1
    22    14    15    1
    23    14     4    1
    24    14    16    1
    25    16    80    1
    26    16    81    1
    27    17    82    1
    28    18    19    1
    29    19    20    1
    30    19    21    1
    31    19    28    1
    32    21    24    1
    33    21    23    1
    34    21    22    1
    35    23    83    1
    36    24    25    1
    37    24    26    1
    38    24    31    1
    39    26    28    1
    40    26    29    1
    41    26    27    1
    42    29    30    1
    43    29    84    1
    44    29    85    1
    45    30    86    1
    46    32    59    1
    47    32    33    1
    48    32    31    1
    49    34    32    1
    50    34    63    1
    51    34    35    1
    52    36    34    1
    53    36    62    1
    54    36    37    1
    55    38    36    1
    56    38    39    1
    57    38    40    1
    58    41    43    1
    59    41    53    1
    60    41    42    1
    61    41    40    1
    62    43    44    1
    63    43    45    1
    64    43    56    1
    65    45    47    1
    66    45    55    1
    67    45    46    1
    68    47    48    1
    69    47    49    1
    70    47    54    1
    71    49    53    1
    72    49    51    1
    73    49    50    1
    74    51    52    1
    75    51    87    1
    76    51    88    1
    77    52    89    1
    78    54    90    1
    79    55    91    1
    80    56    92    1
    81    57    38    1
    82    57    58    1
    83    57    59    1
    84    57    60    1
    85    60    61    1
    86    60    93    1
    87    60    94    1
    88    61    95    1
    89    61    96    1
    90    62    97    1
    91    63    98    1
    92    63    99    1
    93    64    67    1
    94    64    66    1
    95    64    65    1
    96    66   100    1
    97    66   101    1
    98    67    68    1
    99    67   102    1
   100    67   103    1
   101    68    69    1
   102    68    70    1
   103    68    71    1
   104    70   104    1
   105    71    73    1
   106    71    74    1
   107    71    72    1
   108    74    75    1
   109    74   105    1
   110    74   106    1
   111    75   107    1
