REMARK  27 active torsions:
REMARK  status: ('A' for Active; 'I' for Inactive)
REMARK    1  A    between atoms: C_1  and  O_2 
REMARK    2  A    between atoms: O_2  and  C_3 
REMARK    3  A    between atoms: C_4  and  O_12 
REMARK    4  A    between atoms: C_5  and  O_11 
REMARK    5  A    between atoms: C_6  and  N_7 
REMARK    6  A    between atoms: C_9  and  N_10 
REMARK    7  A    between atoms: O_12  and  C_13 
REMARK    8  A    between atoms: C_14  and  O_15 
REMARK    9  A    between atoms: C_16  and  O_21 
REMARK   10  A    between atoms: C_17  and  C_19 
REMARK   11  A    between atoms: C_19  and  O_20 
REMARK   12  A    between atoms: C_22  and  O_21 
REMARK   13  A    between atoms: C_23  and  N_43 
REMARK   14  A    between atoms: C_24  and  O_42 
REMARK   15  A    between atoms: C_25  and  O_26 
REMARK   16  A    between atoms: C_27  and  O_26 
REMARK   17  A    between atoms: C_28  and  O_37 
REMARK   18  A    between atoms: C_29  and  O_36 
REMARK   19  A    between atoms: C_30  and  O_35 
REMARK   20  A    between atoms: C_31  and  C_32 
REMARK   21  A    between atoms: C_32  and  O_33 
REMARK   22  A    between atoms: C_38  and  C_40 
REMARK   23  A    between atoms: C_40  and  N_41 
REMARK   24  A    between atoms: C_44  and  N_45 
REMARK   25  A    between atoms: C_47  and  O_48 
REMARK   26  A    between atoms: C_49  and  C_51 
REMARK   27  A    between atoms: C_51  and  O_52 
ROOT
ATOM      1  C   UNL d   1      -4.962 -12.366   2.089  0.00  0.00     0.292 C 
ATOM      2  C   UNL d   1      -4.989 -12.908   3.497  0.00  0.00     0.205 C 
ATOM      3  C   UNL d   1      -4.956 -14.418   3.154  0.00  0.00     0.189 C 
ATOM      4  C   UNL d   1      -4.282 -14.618   1.766  0.00  0.00     0.180 C 
ATOM      5  O   UNL d   1      -5.106 -13.426   1.154  0.00  0.00    -0.348 OA
ENDROOT
BRANCH   3   6
ATOM      6  O   UNL d   1      -5.915 -15.233   3.926  0.00  0.00    -0.348 OA
BRANCH   6   7
ATOM      7  C   UNL d   1      -7.364 -14.863   3.655  0.00  0.00     0.285 C 
ATOM      8  O   UNL d   1      -7.669 -13.532   4.134  0.00  0.00    -0.349 OA
ATOM      9  C   UNL d   1      -9.094 -13.491   4.225  0.00  0.00     0.184 C 
ATOM     10  C   UNL d   1      -9.688 -13.252   2.788  0.00  0.00     0.186 C 
ATOM     11  C   UNL d   1      -8.580 -13.735   1.556  0.00  0.00     0.176 C 
ATOM     12  C   UNL d   1      -7.982 -15.076   2.207  0.00  0.00     0.161 C 
BRANCH   9  13
ATOM     13  C   UNL d   1      -9.557 -13.185   5.658  0.00  0.00     0.301 C 
BRANCH  13  14
ATOM     14  N   UNL d   1      -9.537 -11.854   6.202  0.00  0.00     0.080 NA
ATOM     15  H   UNL d   1     -10.482 -11.613   6.510  0.00  0.00     0.312 HD
ATOM     16  H   UNL d   1      -9.277 -11.170   5.501  0.00  0.00     0.312 HD
ENDBRANCH  13  14
ENDBRANCH   9  13
BRANCH  10  17
ATOM     17  O   UNL d   1     -10.373 -12.053   2.419  0.00  0.00    -0.348 OA
BRANCH  17  18
ATOM     18  C   UNL d   1     -11.284 -11.439   3.346  0.00  0.00     0.292 C 
ATOM     19  C   UNL d   1     -12.647 -10.935   2.718  0.00  0.00     0.204 C 
ATOM     20  C   UNL d   1     -13.273  -9.970   4.003  0.00  0.00     0.183 C 
ATOM     21  C   UNL d   1     -12.260  -9.379   4.995  0.00  0.00     0.180 C 
ATOM     22  C   UNL d   1     -11.261  -9.102   3.819  0.00  0.00     0.179 C 
ATOM     23  O   UNL d   1     -10.473 -10.341   3.846  0.00  0.00    -0.348 OA
BRANCH  19  24
ATOM     24  O   UNL d   1     -13.012 -11.973   1.815  0.00  0.00    -0.388 OA
ATOM     25  H   UNL d   1     -13.262 -11.513   0.981  0.00  0.00     0.210 HD
ENDBRANCH  19  24
BRANCH  20  26
ATOM     26  O   UNL d   1     -14.464 -10.443   4.573  0.00  0.00    -0.390 OA
ATOM     27  H   UNL d   1     -15.160  -9.747   4.449  0.00  0.00     0.210 HD
ENDBRANCH  20  26
BRANCH  21  28
ATOM     28  O   UNL d   1     -13.015  -8.569   5.860  0.00  0.00    -0.390 OA
ATOM     29  H   UNL d   1     -12.822  -8.909   6.784  0.00  0.00     0.210 HD
ENDBRANCH  21  28
BRANCH  22  30
ATOM     30  C   UNL d   1     -10.714  -7.903   3.135  0.00  0.00     0.198 C 
BRANCH  30  31
ATOM     31  O   UNL d   1     -10.550  -6.756   3.903  0.00  0.00    -0.398 OA
ATOM     32  H   UNL d   1     -10.776  -6.026   3.278  0.00  0.00     0.209 HD
ENDBRANCH  30  31
ENDBRANCH  22  30
ENDBRANCH  17  18
ENDBRANCH  10  17
BRANCH  11  33
ATOM     33  O   UNL d   1      -9.528 -13.674   0.437  0.00  0.00    -0.391 OA
ATOM     34  H   UNL d   1      -9.612 -12.701   0.293  0.00  0.00     0.210 HD
ENDBRANCH  11  33
BRANCH  12  35
ATOM     35  N   UNL d   1      -7.450 -16.291   1.622  0.00  0.00    -0.420 N 
ATOM     36  H   UNL d   1      -6.423 -16.295   1.421  0.00  0.00     0.150 HD
ATOM     37  H   UNL d   1      -7.943 -16.844   1.041  0.00  0.00     0.150 HD
ENDBRANCH  12  35
ENDBRANCH   6   7
ENDBRANCH   3   6
BRANCH   2  38
ATOM     38  O   UNL d   1      -4.965 -11.815   4.372  0.00  0.00    -0.388 OA
ATOM     39  H   UNL d   1      -5.871 -11.428   4.312  0.00  0.00     0.210 HD
ENDBRANCH   2  38
BRANCH   4  40
ATOM     40  C   UNL d   1      -2.774 -14.972   2.203  0.00  0.00     0.198 C 
BRANCH  40  41
ATOM     41  O   UNL d   1      -2.704 -16.348   2.546  0.00  0.00    -0.398 OA
ATOM     42  H   UNL d   1      -1.758 -16.601   2.551  0.00  0.00     0.209 HD
ENDBRANCH  40  41
ENDBRANCH   4  40
BRANCH   1  43
ATOM     43  O   UNL d   1      -5.427 -11.046   1.855  0.00  0.00    -0.348 OA
BRANCH  43  44
ATOM     44  C   UNL d   1      -4.299 -10.179   1.559  0.00  0.00     0.186 C 
ATOM     45  C   UNL d   1      -2.998 -10.148   2.656  0.00  0.00     0.189 C 
ATOM     46  C   UNL d   1      -1.668 -10.514   1.971  0.00  0.00     0.251 C 
ATOM     47  C   UNL d   1      -1.815 -11.759   1.146  0.00  0.00     0.076 C 
ATOM     48  C   UNL d   1      -2.406 -11.351  -0.194  0.00  0.00     0.251 C 
ATOM     49  C   UNL d   1      -3.815 -10.395   0.047  0.00  0.00     0.182 C 
BRANCH  45  50
ATOM     50  O   UNL d   1      -3.006  -8.768   3.054  0.00  0.00    -0.349 OA
BRANCH  50  51
ATOM     51  C   UNL d   1      -2.740  -8.039   4.256  0.00  0.00     0.293 C 
ATOM     52  C   UNL d   1      -1.863  -6.828   3.890  0.00  0.00     0.275 C 
ATOM     53  C   UNL d   1      -1.212  -6.021   4.994  0.00  0.00     0.074 C 
ATOM     54  C   UNL d   1      -2.136  -5.794   6.159  0.00  0.00     0.151 C 
ATOM     55  C   UNL d   1      -3.422  -6.618   6.167  0.00  0.00     0.177 C 
ATOM     56  O   UNL d   1      -3.164  -7.999   5.657  0.00  0.00    -0.349 OA
BRANCH  52  57
ATOM     57  N   UNL d   1      -0.822  -7.158   2.924  0.00  0.00     0.087 N 
ATOM     58  H   UNL d   1      -1.217  -7.808   2.240  0.00  0.00     0.313 HD
ATOM     59  H   UNL d   1      -0.610  -6.317   2.391  0.00  0.00     0.313 HD
ENDBRANCH  52  57
BRANCH  54  60
ATOM     60  O   UNL d   1      -1.481  -5.951   7.418  0.00  0.00    -0.393 OA
ATOM     61  H   UNL d   1      -1.348  -5.064   7.756  0.00  0.00     0.210 HD
ENDBRANCH  54  60
BRANCH  55  62
ATOM     62  C   UNL d   1      -4.462  -5.571   6.805  0.00  0.00     0.198 C 
BRANCH  62  63
ATOM     63  O   UNL d   1      -4.566  -4.333   6.088  0.00  0.00    -0.398 OA
ATOM     64  H   UNL d   1      -3.854  -3.734   6.394  0.00  0.00     0.209 HD
ENDBRANCH  62  63
ENDBRANCH  55  62
ENDBRANCH  50  51
ENDBRANCH  45  50
BRANCH  46  65
ATOM     65  N   UNL d   1      -0.610 -10.363   2.956  0.00  0.00     0.085 N 
ATOM     66  H   UNL d   1      -0.135  -9.478   2.807  0.00  0.00     0.313 HD
ATOM     67  H   UNL d   1       0.171 -11.023   2.988  0.00  0.00     0.313 HD
ENDBRANCH  46  65
BRANCH  48  68
ATOM     68  N   UNL d   1      -1.963 -12.668  -0.871  0.00  0.00     0.085 N 
ATOM     69  H   UNL d   1      -1.559 -12.391  -1.784  0.00  0.00     0.313 HD
ATOM     70  H   UNL d   1      -2.700 -13.327  -1.091  0.00  0.00     0.313 HD
ENDBRANCH  48  68
BRANCH  49  71
ATOM     71  O   UNL d   1      -3.956  -8.892  -0.295  0.00  0.00    -0.391 OA
ATOM     72  H   UNL d   1      -4.281  -8.774  -1.190  0.00  0.00     0.210 HD
ENDBRANCH  49  71
ENDBRANCH  43  44
ENDBRANCH   1  43
TORSDOF 27
