REMARK  22 active torsions:
REMARK  status: ('A' for Active; 'I' for Inactive)
REMARK    1  A    between atoms: O_12  and  C_1 
REMARK    2  A    between atoms: O_11  and  C_2 
REMARK    3  A    between atoms: O_10  and  C_3 
REMARK    4  A    between atoms: O_9  and  C_4 
REMARK    5  A    between atoms: C_6  and  C_5 
REMARK    6  A    between atoms: N_7  and  C_6 
REMARK    7  A    between atoms: C_13  and  O_12 
REMARK    8  A    between atoms: N_40  and  C_14 
REMARK    9  A    between atoms: N_17  and  C_16 
REMARK       I    between atoms: C_18  and  N_17 
REMARK   10  A    between atoms: C_20  and  C_18 
REMARK   11  A    between atoms: C_21  and  C_20 
REMARK   12  A    between atoms: O_24  and  C_20 
REMARK   13  A    between atoms: C_22  and  C_21 
REMARK   14  A    between atoms: N_23  and  C_22 
REMARK   15  A    between atoms: O_28  and  C_25 
REMARK   16  A    between atoms: O_27  and  C_26 
REMARK   17  A    between atoms: C_29  and  O_28 
REMARK   18  A    between atoms: O_31  and  C_30 
REMARK   19  A    between atoms: N_33  and  C_32 
REMARK   20  A    between atoms: O_35  and  C_34 
REMARK   21  A    between atoms: C_38  and  C_36 
REMARK   22  A    between atoms: O_39  and  C_38 
ROOT
ATOM      1  C   UNL d   1       0.885   2.210   4.505  0.00  0.00     0.189 C 
ATOM      2  C   UNL d   1       1.123   3.724   4.501  0.00  0.00     0.251 C 
ATOM      3  C   UNL d   1       0.244   4.409   3.452  0.00  0.00     0.066 C 
ATOM      4  C   UNL d   1      -1.236   4.172   3.756  0.00  0.00     0.118 C 
ATOM      5  C   UNL d   1      -1.573   2.666   3.736  0.00  0.00     0.178 C 
ATOM      6  C   UNL d   1      -0.609   1.851   4.615  0.00  0.00     0.180 C 
ENDROOT
BRANCH   1   7
ATOM      7  O   UNL d   1       1.740   1.631   5.515  0.00  0.00    -0.348 OA
BRANCH   7   8
ATOM      8  C   UNL d   1       1.206   1.076   6.720  0.00  0.00     0.292 C 
ATOM      9  C   UNL d   1       1.127   2.054   7.902  0.00  0.00     0.204 C 
ATOM     10  C   UNL d   1       2.514   2.613   8.189  0.00  0.00     0.183 C 
ATOM     11  C   UNL d   1       3.460   1.456   8.500  0.00  0.00     0.180 C 
ATOM     12  C   UNL d   1       3.332   0.257   7.528  0.00  0.00     0.183 C 
ATOM     13  O   UNL d   1       1.988  -0.056   7.146  0.00  0.00    -0.349 OA
BRANCH   9  14
ATOM     14  O   UNL d   1       0.192   3.089   7.634  0.00  0.00    -0.388 OA
ATOM     15  H   UNL d   1       0.687   3.920   7.529  0.00  0.00     0.210 HD
ENDBRANCH   9  14
BRANCH  10  16
ATOM     16  O   UNL d   1       2.452   3.513   9.299  0.00  0.00    -0.390 OA
ATOM     17  H   UNL d   1       2.731   3.046  10.106  0.00  0.00     0.210 HD
ENDBRANCH  10  16
BRANCH  11  18
ATOM     18  O   UNL d   1       4.796   1.961   8.479  0.00  0.00    -0.390 OA
ATOM     19  H   UNL d   1       5.019   2.170   7.554  0.00  0.00     0.210 HD
ENDBRANCH  11  18
BRANCH  12  20
ATOM     20  C   UNL d   1       3.922  -1.013   8.193  0.00  0.00     0.301 C 
BRANCH  20  21
ATOM     21  N   UNL d   1       3.092  -1.541   9.282  0.00  0.00     0.080 N 
ATOM     22  H   UNL d   1       3.278  -2.537   9.397  0.00  0.00     0.312 HD
ATOM     23  H   UNL d   1       2.101  -1.468   9.051  0.00  0.00     0.312 HD
ENDBRANCH  20  21
ENDBRANCH  12  20
ENDBRANCH   7   8
ENDBRANCH   1   7
BRANCH   2  24
ATOM     24  N   UNL d   1       2.521   4.047   4.202  0.00  0.00     0.085 N 
ATOM     25  H   UNL d   1       3.135   3.335   4.598  0.00  0.00     0.313 HD
ATOM     26  H   UNL d   1       2.768   4.916   4.676  0.00  0.00     0.313 HD
ENDBRANCH   2  24
BRANCH   6  27
ATOM     27  O   UNL d   1      -0.704   0.463   4.270  0.00  0.00    -0.390 OA
ATOM     28  H   UNL d   1      -1.611   0.175   4.459  0.00  0.00     0.210 HD
ENDBRANCH   6  27
BRANCH   5  29
ATOM     29  O   UNL d   1      -2.987   2.519   3.978  0.00  0.00    -0.349 OA
BRANCH  29  30
ATOM     30  C   UNL d   1      -3.579   1.966   5.162  0.00  0.00     0.291 C 
ATOM     31  C   UNL d   1      -3.912   3.058   6.207  0.00  0.00     0.208 C 
ATOM     32  C   UNL d   1      -4.453   2.493   7.535  0.00  0.00     0.282 C 
ATOM     33  C   UNL d   1      -4.722   0.991   7.413  0.00  0.00     0.184 C 
ATOM     34  C   UNL d   1      -3.437   0.308   6.937  0.00  0.00     0.179 C 
ATOM     35  O   UNL d   1      -2.915   0.844   5.718  0.00  0.00    -0.349 OA
BRANCH  31  36
ATOM     36  O   UNL d   1      -2.747   3.812   6.526  0.00  0.00    -0.388 OA
ATOM     37  H   UNL d   1      -2.112   3.212   6.947  0.00  0.00     0.210 HD
ENDBRANCH  31  36
BRANCH  32  38
ATOM     38  N   UNL d   1      -5.676   3.200   7.915  0.00  0.00     0.088 N 
ATOM     39  H   UNL d   1      -5.455   4.185   8.059  0.00  0.00     0.313 HD
ATOM     40  H   UNL d   1      -5.993   2.859   8.822  0.00  0.00     0.313 HD
ENDBRANCH  32  38
BRANCH  33  41
ATOM     41  O   UNL d   1      -5.114   0.463   8.681  0.00  0.00    -0.391 OA
ATOM     42  H   UNL d   1      -4.387   0.610   9.311  0.00  0.00     0.210 HD
ENDBRANCH  33  41
BRANCH  34  43
ATOM     43  C   UNL d   1      -3.581  -1.198   6.757  0.00  0.00     0.198 C 
BRANCH  43  44
ATOM     44  O   UNL d   1      -4.425  -1.498   5.650  0.00  0.00    -0.398 OA
ATOM     45  H   UNL d   1      -3.901  -1.391   4.833  0.00  0.00     0.209 HD
ENDBRANCH  43  44
ENDBRANCH  34  43
ENDBRANCH  29  30
ENDBRANCH   5  29
BRANCH   4  46
ATOM     46  N   UNL d   1      -2.087   4.982   2.887  0.00  0.00    -0.352 N 
ATOM     47  C   UNL d   1      -2.561   4.546   1.664  0.00  0.00     0.246 C 
ATOM     48  O   UNL d   1      -1.855   4.368   0.669  0.00  0.00    -0.271 OA
ATOM     49  H   UNL d   1      -2.056   5.985   3.041  0.00  0.00     0.163 HD
BRANCH  47  50
ATOM     50  C   UNL d   1      -4.071   4.351   1.655  0.00  0.00     0.211 C 
BRANCH  50  51
ATOM     51  C   UNL d   1      -4.463   2.921   1.249  0.00  0.00     0.071 C 
BRANCH  51  52
ATOM     52  C   UNL d   1      -5.198   2.759  -0.083  0.00  0.00     0.269 C 
BRANCH  52  53
ATOM     53  N   UNL d   1      -4.275   2.745  -1.213  0.00  0.00     0.078 N 
ATOM     54  H   UNL d   1      -3.580   2.011  -1.076  0.00  0.00     0.312 HD
ATOM     55  H   UNL d   1      -3.760   3.624  -1.248  0.00  0.00     0.312 HD
ENDBRANCH  52  53
ENDBRANCH  51  52
ENDBRANCH  50  51
BRANCH  50  56
ATOM     56  O   UNL d   1      -4.624   5.348   0.815  0.00  0.00    -0.386 OA
ATOM     57  H   UNL d   1      -4.137   5.350  -0.026  0.00  0.00     0.210 HD
ENDBRANCH  50  56
ENDBRANCH  47  50
ENDBRANCH   4  46
TORSDOF 22
