@<TRIPOS>MOLECULE
4P20_AKN_A_101
 83 85 0 0 0
SMALL
GASTEIGER

@<TRIPOS>ATOM
      1 C           1.2055    1.0759    6.7200 C.3     1  UNL1        0.1883
      2 H           0.2143    0.6541    6.5615 H       1  UNL1        0.0938
      3 C           1.1268    2.0541    7.9022 C.3     1  UNL1        0.1341
      4 H           0.7539    1.5258    8.7992 H       1  UNL1        0.0671
      5 C           2.5135    2.6133    8.1888 C.3     1  UNL1        0.1140
      6 H           2.8652    3.2100    7.3398 H       1  UNL1        0.0648
      7 C           3.4600    1.4560    8.4996 C.3     1  UNL1        0.1109
      8 H           3.2931    1.1087    9.5164 H       1  UNL1        0.0646
      9 C           3.3315    0.2569    7.5280 C.3     1  UNL1        0.1023
     10 H           3.9019    0.4376    6.6062 H       1  UNL1        0.0636
     11 C           3.9216   -1.0134    8.1930 C.3     1  UNL1        0.0222
     12 N           3.0922   -1.5411    9.2818 N.3     1  UNL1       -0.3276
     13 O           1.9878   -0.0559    7.1457 O.3     1  UNL1       -0.3415
     14 O           4.7963    1.9606    8.4789 O.3     1  UNL1       -0.3865
     15 O           2.4521    3.5134    9.2991 O.3     1  UNL1       -0.3864
     16 O           0.1919    3.0892    7.6340 O.3     1  UNL1       -0.3841
     17 O           1.7395    1.6314    5.5152 O.3     1  UNL1       -0.3413
     18 C           0.8847    2.2099    4.5046 C.3     1  UNL1        0.1052
     19 H           1.2518    1.8047    3.5494 H       1  UNL1        0.0639
     20 C           1.1226    3.7244    4.5007 C.3     1  UNL1        0.0358
     21 H           0.8942    4.1303    5.4866 H       1  UNL1        0.0485
     22 C           0.2445    4.4093    3.4524 C.3     1  UNL1       -0.0142
     23 C          -1.2360    4.1717    3.7563 C.3     1  UNL1        0.0535
     24 H          -1.4204    4.5598    4.7617 H       1  UNL1        0.0525
     25 N          -2.0866    4.9822    2.8872 N.am    1  UNL1       -0.3077
     26 C          -2.5608    4.5459    1.6638 C.2     1  UNL1        0.2420
     27 O          -1.8551    4.3677    0.6694 O.2     1  UNL1       -0.2730
     28 C          -4.0711    4.3511    1.6548 C.3     1  UNL1        0.1320
     29 H          -4.4595    4.5448    2.6595 H       1  UNL1        0.0690
     30 C          -4.4633    2.9214    1.2494 C.3     1  UNL1       -0.0059
     31 C          -5.1982    2.7592   -0.0829 C.3     1  UNL1       -0.0041
     32 N          -4.2753    2.7450   -1.2127 N.3     1  UNL1       -0.3299
     33 O          -4.6243    5.3477    0.8146 O.3     1  UNL1       -0.3825
     34 C          -1.5735    2.6659    3.7358 C.3     1  UNL1        0.1083
     35 H          -1.4404    2.3011    2.7097 H       1  UNL1        0.0642
     36 C          -0.6085    1.8513    4.6153 C.3     1  UNL1        0.1107
     37 H          -0.9213    1.9928    5.6481 H       1  UNL1        0.0646
     38 O          -0.7040    0.4627    4.2700 O.3     1  UNL1       -0.3865
     39 O          -2.9874    2.5195    3.9782 O.3     1  UNL1       -0.3410
     40 C          -3.5788    1.9663    5.1624 C.3     1  UNL1        0.1874
     41 H          -4.5368    1.5789    4.7926 H       1  UNL1        0.0937
     42 C          -3.9119    3.0576    6.2074 C.3     1  UNL1        0.1234
     43 H          -4.6110    3.7705    5.7543 H       1  UNL1        0.0660
     44 O          -2.7466    3.8123    6.5259 O.3     1  UNL1       -0.3851
     45 C          -4.4527    2.4925    7.5352 C.3     1  UNL1        0.0647
     46 H          -3.7234    2.6512    8.3440 H       1  UNL1        0.0512
     47 N          -5.6759    3.1998    7.9151 N.3     1  UNL1       -0.3229
     48 C          -4.7216    0.9910    7.4128 C.3     1  UNL1        0.1012
     49 H          -5.5373    0.7832    6.7121 H       1  UNL1        0.0636
     50 O          -5.1138    0.4629    8.6809 O.3     1  UNL1       -0.3875
     51 C          -3.4365    0.3078    6.9369 C.3     1  UNL1        0.1120
     52 H          -2.6565    0.4732    7.6902 H       1  UNL1        0.0646
     53 O          -2.9148    0.8441    5.7180 O.3     1  UNL1       -0.3406
     54 C          -3.5809   -1.1977    6.7566 C.3     1  UNL1        0.0730
     55 O          -4.4250   -1.4985    5.6496 O.3     1  UNL1       -0.3924
     56 N           2.5210    4.0470    4.2022 N.3     1  UNL1       -0.3250
     57 H           4.0572   -1.7925    7.4374 H       1  UNL1        0.0448
     58 H           4.9081   -0.7805    8.6071 H       1  UNL1        0.0448
     59 H           3.2781   -2.5368    9.3972 H       1  UNL1        0.1183
     60 H           2.1013   -1.4681    9.0510 H       1  UNL1        0.1183
     61 H           5.0195    2.1697    7.5538 H       1  UNL1        0.2100
     62 H           2.7310    3.0463   10.1061 H       1  UNL1        0.2100
     63 H           0.6866    3.9200    7.5295 H       1  UNL1        0.2101
     64 H           0.4499    5.4870    3.4371 H       1  UNL1        0.0300
     65 H           0.4730    4.0411    2.4424 H       1  UNL1        0.0300
     66 H          -2.0563    5.9853    3.0408 H       1  UNL1        0.1491
     67 H          -5.1202    2.5238    2.0347 H       1  UNL1        0.0307
     68 H          -3.5865    2.2622    1.2608 H       1  UNL1        0.0307
     69 H          -5.7465    1.8098   -0.0754 H       1  UNL1        0.0423
     70 H          -5.9502    3.5416   -0.2267 H       1  UNL1        0.0423
     71 H          -3.5797    2.0115   -1.0757 H       1  UNL1        0.1182
     72 H          -3.7604    3.6242   -1.2485 H       1  UNL1        0.1182
     73 H          -4.1373    5.3498   -0.0265 H       1  UNL1        0.2104
     74 H          -1.6106    0.1751    4.4588 H       1  UNL1        0.2100
     75 H          -2.1117    3.2115    6.9465 H       1  UNL1        0.2101
     76 H          -5.4550    4.1854    8.0589 H       1  UNL1        0.1186
     77 H          -5.9929    2.8593    8.8216 H       1  UNL1        0.1186
     78 H          -4.3866    0.6100    9.3106 H       1  UNL1        0.2100
     79 H          -4.0121   -1.6504    7.6512 H       1  UNL1        0.0584
     80 H          -2.5997   -1.6565    6.5889 H       1  UNL1        0.0584
     81 H          -3.9015   -1.3911    4.8334 H       1  UNL1        0.2095
     82 H           3.1353    3.3353    4.5983 H       1  UNL1        0.1185
     83 H           2.7683    4.9162    4.6765 H       1  UNL1        0.1185
@<TRIPOS>BOND
     1     1     2    1
     2     3     1    1
     3     3     4    1
     4     5     3    1
     5     5     6    1
     6     7     5    1
     7     7     8    1
     8     9     7    1
     9     9    10    1
    10    11     9    1
    11    12    11    1
    12    13     9    1
    13    13     1    1
    14    14     7    1
    15    15     5    1
    16    16     3    1
    17    17     1    1
    18    18    17    1
    19    18    19    1
    20    20    18    1
    21    20    21    1
    22    22    20    1
    23    23    22    1
    24    23    24    1
    25    25    23    1
    26    26    25   am
    27    27    26    2
    28    28    26    1
    29    28    29    1
    30    30    28    1
    31    31    30    1
    32    32    31    1
    33    33    28    1
    34    34    23    1
    35    34    35    1
    36    36    34    1
    37    36    37    1
    38    36    18    1
    39    38    36    1
    40    39    34    1
    41    40    39    1
    42    40    41    1
    43    42    40    1
    44    42    43    1
    45    44    42    1
    46    45    42    1
    47    45    46    1
    48    47    45    1
    49    48    45    1
    50    48    49    1
    51    50    48    1
    52    51    48    1
    53    51    52    1
    54    53    51    1
    55    53    40    1
    56    54    51    1
    57    55    54    1
    58    56    20    1
    59    11    57    1
    60    11    58    1
    61    12    59    1
    62    12    60    1
    63    14    61    1
    64    15    62    1
    65    16    63    1
    66    22    64    1
    67    22    65    1
    68    25    66    1
    69    30    67    1
    70    30    68    1
    71    31    69    1
    72    31    70    1
    73    32    71    1
    74    32    72    1
    75    33    73    1
    76    38    74    1
    77    44    75    1
    78    47    76    1
    79    47    77    1
    80    50    78    1
    81    54    79    1
    82    54    80    1
    83    55    81    1
    84    56    82    1
    85    56    83    1
