@<TRIPOS>MOLECULE
3SKL_GNG_A_120
 32 34 0 0 0
SMALL
GASTEIGER

@<TRIPOS>ATOM
      1 O5*         1.1229   -0.1909   -0.4338 O.3     1    G1       -0.3924
      2 C5*         2.4178    0.0582    0.1143 C.3     1    G1        0.0729
      3 C4*         2.9741   -1.1893    0.8021 C.3     1    G1        0.1100
      4 H4*         3.9489   -0.9349    1.2367 H       1    G1        0.0646
      5 O4*         2.1160   -1.6013    1.8835 O.3     1    G1       -0.3484
      6 C1*         2.3695   -3.0059    2.0763 C.3     1    G1        0.1407
      7 H1*         3.2217   -3.0991    2.7606 H       1    G1        0.0840
      8 N9          1.2382   -3.6523    2.7151 N.ar    1    G1       -0.2893
      9 C8          1.1900   -4.9897    3.0541 C.ar    1    G1        0.1004
     10 N7          0.0308   -5.3299    3.5850 N.ar    1    G1       -0.2286
     11 C5         -0.6976   -4.1605    3.6219 C.ar    1    G1        0.1721
     12 C4          0.0436   -3.1381    3.0960 C.ar    1    G1        0.1482
     13 N3         -0.4101   -1.8811    3.0298 N.ar    1    G1       -0.3122
     14 H3          0.1712   -1.1155    2.7031 H       1    G1        0.1700
     15 C2         -1.6489   -1.6461    3.5686 C.ar    1    G1        0.1952
     16 N1         -2.4443   -2.5400    4.0814 N.ar    1    G1       -0.1756
     17 C6         -2.0537   -3.8854    4.1236 C.ar    1    G1        0.3021
     18 O6         -2.7879   -4.7702    4.5509 O.2     1    G1       -0.2633
     19 N2         -2.0042   -0.3376    3.5577 N.pl3   1    G1       -0.3289
     20 C2*         2.6916   -3.5831    0.7053 C.3     1    G1        0.0213
     21 C3*         3.1011   -2.3905   -0.1316 C.3     1    G1        0.0876
     22 H3*         2.4646   -2.3048   -1.0183 H       1    G1        0.0621
     23 O3*         4.4473   -2.5353   -0.5738 O.3     1    G1       -0.3890
     24 H5*         0.8384    0.6331   -0.8673 H       1    G1        0.2095
     25 H5*1        2.3170    0.8744    0.8371 H       1    G1        0.0584
     26 H5*2        3.0793    0.3754   -0.6980 H       1    G1        0.0584
     27 H8          2.0188   -5.6644    2.8846 H       1    G1        0.1030
     28 H21        -1.7268    0.1868    2.7387 H       1    G1        0.1451
     29 H22        -2.9880   -0.2187    3.7765 H       1    G1        0.1451
     30 H2*1        1.8044   -4.0474    0.2570 H       1    G1        0.0335
     31 H2*2        3.4604   -4.3605    0.7734 H       1    G1        0.0335
     32 H3*         4.4690   -3.2701   -1.2137 H       1    G1        0.2099
@<TRIPOS>BOND
     1     1     2    1
     2     1    24    1
     3     2     3    1
     4     2    25    1
     5     2    26    1
     6     3     4    1
     7     3     5    1
     8     3    21    1
     9     5     6    1
    10     6    20    1
    11     6     8    1
    12     6     7    1
    13     8     9   ar
    14     8    12   ar
    15     9    10   ar
    16     9    27    1
    17    10    11   ar
    18    11    12   ar
    19    11    17   ar
    20    12    13   ar
    21    13    14    1
    22    13    15   ar
    23    15    16   ar
    24    15    19    1
    25    16    17   ar
    26    17    18    2
    27    19    28    1
    28    19    29    1
    29    20    21    1
    30    20    30    1
    31    20    31    1
    32    21    22    1
    33    21    23    1
    34    23    32    1
