REMARK  5 active torsions:
REMARK  status: ('A' for Active; 'I' for Inactive)
REMARK    1  A    between atoms: O5*_1  and  C5*_2 
REMARK    2  A    between atoms: C5*_2  and  C4*_3 
REMARK    3  A    between atoms: C1*_5  and  N9_6 
REMARK    4  A    between atoms: C2_13  and  N2_17 
REMARK    5  A    between atoms: C3*_19  and  O3*_20 
ROOT
ATOM      1  N9   G1 d           1.238  -3.652   2.715  0.00  0.00    -0.298 N 
ATOM      2  C8   G1 d           1.190  -4.990   3.054  0.00  0.00     0.214 A 
ATOM      3  N7   G1 d           0.031  -5.330   3.585  0.00  0.00    -0.234 NA
ATOM      4  C5   G1 d          -0.698  -4.160   3.622  0.00  0.00     0.172 A 
ATOM      5  C4   G1 d           0.044  -3.138   3.096  0.00  0.00     0.148 A 
ATOM      6  N3   G1 d          -0.410  -1.881   3.030  0.00  0.00    -0.315 N 
ATOM      7  H3   G1 d           0.171  -1.115   2.703  0.00  0.00     0.170 HD
ATOM      8  C2   G1 d          -1.649  -1.646   3.569  0.00  0.00     0.182 A 
ATOM      9  N1   G1 d          -2.444  -2.540   4.081  0.00  0.00    -0.179 NA
ATOM     10  C6   G1 d          -2.054  -3.885   4.124  0.00  0.00     0.302 A 
ATOM     11  O6   G1 d          -2.788  -4.770   4.551  0.00  0.00    -0.263 OA
ENDROOT
BRANCH   1  12
ATOM     12  C1*  G1 d           2.369  -3.006   2.076  0.00  0.00     0.233 C 
ATOM     13  O4*  G1 d           2.116  -1.601   1.883  0.00  0.00    -0.356 OA
ATOM     14  C4*  G1 d           2.974  -1.189   0.802  0.00  0.00     0.176 C 
ATOM     15  C3*  G1 d           3.101  -2.390  -0.132  0.00  0.00     0.153 C 
ATOM     16  C2*  G1 d           2.692  -3.583   0.705  0.00  0.00     0.088 C 
BRANCH  14  17
ATOM     17  C5*  G1 d           2.418   0.058   0.114  0.00  0.00     0.198 C 
BRANCH  17  18
ATOM     18  O5*  G1 d           1.123  -0.191  -0.434  0.00  0.00    -0.398 OA
ATOM     19  H5*  G1 d           0.838   0.633  -0.867  0.00  0.00     0.209 HD
ENDBRANCH  17  18
ENDBRANCH  14  17
BRANCH  15  20
ATOM     20  O3*  G1 d           4.447  -2.535  -0.574  0.00  0.00    -0.393 OA
ATOM     21  H3*  G1 d           4.469  -3.270  -1.214  0.00  0.00     0.210 HD
ENDBRANCH  15  20
ENDBRANCH   1  12
BRANCH   8  22
ATOM     22  N2   G1 d          -2.004  -0.338   3.558  0.00  0.00    -0.272 NA
ATOM     23  H21  G1 d          -1.727   0.187   2.739  0.00  0.00     0.127 HD
ATOM     24  H22  G1 d          -2.988  -0.219   3.776  0.00  0.00     0.127 HD
ENDBRANCH   8  22
TORSDOF 5
