@<TRIPOS>MOLECULE
2F4U_AB6_B_41
 36 37 0 0 0
SMALL
GASTEIGER
****
Coordinates from PDB:2F4U:B:41 Model:1 without hydrogens
@<TRIPOS>ATOM
      1 C          37.8870    9.1830    5.3800 C.3     1  UNL1        0.2561
      2 C          42.0200    5.5980    6.1320 C.3     1  UNL1        0.1265
      3 C          36.4210    8.8990    4.9280 C.3     1  UNL1        0.1807
      4 C          42.2330    6.6950    5.0300 C.3     1  UNL1        0.0458
      5 C          43.8310    3.5900    6.2210 C.2     1  UNL1        0.2719
      6 C          44.9090    3.7480    7.2470 C.3     1  UNL1        0.2305
      7 C          45.7210    2.4480    7.2550 C.3     1  UNL1        0.0630
      8 C          46.7250    2.2910    8.4120 C.3     1  UNL1        0.1124
      9 C          41.1080    4.4340    9.4260 C.3     1  UNL1        0.1610
     10 C          39.8400    4.6010   10.2500 C.3     1  UNL1        0.1207
     11 C          36.3460    8.9960    3.3680 C.3     1  UNL1        0.2070
     12 C          40.8910    7.1360    4.4110 C.3     1  UNL1        0.1234
     13 C          36.8770    4.5530   10.6380 C.3     1  UNL1        0.0393
     14 C          35.5130    4.6590   11.3840 C.3     1  UNL1        0.1108
     15 O          38.7210    8.1040    4.8160 O.3     1  UNL1       -0.3277
     16 N          35.9330    7.5820    5.3770 N.3     1  UNL1       -0.1248
     17 O          35.0250    8.7330    2.9020 O.3     1  UNL1       -0.2186
     18 C          36.8210   10.4020    2.9500 C.3     1  UNL1        0.2133
     19 O          36.7980   10.5880    1.5370 O.3     1  UNL1       -0.2176
     20 C          38.2420   10.6790    3.4730 C.3     1  UNL1        0.1834
     21 O          38.3130   10.4860    4.8900 O.3     1  UNL1       -0.3264
     22 C          38.6960   12.0770    3.1480 C.3     1  UNL1        0.2142
     23 O          39.9730   12.2900    3.6160 O.3     1  UNL1       -0.2176
     24 N          43.3040    5.2040    6.7730 N.am    1  UNL1       -0.2024
     25 N          41.0850    8.1870    3.4200 N.3     1  UNL1       -0.1302
     26 C          39.9610    7.6620    5.4860 C.3     1  UNL1        0.1680
     27 C          39.7080    6.5400    6.5730 C.3     1  UNL1        0.2090
     28 O          38.8240    7.0800    7.6050 O.3     1  UNL1       -0.2178
     29 C          41.0820    6.1250    7.2000 C.3     1  UNL1        0.1678
     30 O          40.9350    5.1360    8.1770 O.3     1  UNL1       -0.3503
     31 N          39.0510    3.3620   10.4030 N.3     1  UNL1       -0.2154
     32 C          37.7700    3.3950   11.1550 C.3     1  UNL1        0.0903
     33 N          34.6600    5.7540   10.8320 N.3     1  UNL1       -0.1313
     34 O          43.4730    2.8520    5.5220 O.2     1  UNL1       -0.2706
     35 N          47.4140    1.0080    8.2600 N.3     1  UNL1       -0.1313
     36 O          45.7760    4.7880    6.8850 O.3     1  UNL1       -0.2131
@<TRIPOS>BOND
     1     1     3    1
     2     1    15    1
     3     1    21    1
     4     2     4    1
     5     2    24    1
     6     2    29    1
     7     3    11    1
     8     3    16    1
     9     4    12    1
    10     5     6    1
    11     5    24   am
    12     5    34    2
    13     6     7    1
    14     6    36    1
    15     7     8    1
    16     8    35    1
    17     9    10    1
    18     9    30    1
    19    10    31    1
    20    11    17    1
    21    11    18    1
    22    12    25    1
    23    12    26    1
    24    13    14    1
    25    13    32    1
    26    14    33    1
    27    18    19    1
    28    18    20    1
    29    20    21    1
    30    20    22    1
    31    22    23    1
    32    26    15    1
    33    26    27    1
    34    27    28    1
    35    27    29    1
    36    29    30    1
    37    31    32    1
