2F4U_AB6_B_41
 OpenBabel10091713573D
Coordinates from PDB:2F4U:B:41 Model:1 without hydrogens
 80 81  0  0  0  0  0  0  0  0999 V2000
   37.8870    9.1830    5.3800 C   0  0  1  0  0  0  0  0  0  0  0  0
   42.0200    5.5980    6.1320 C   0  0  1  0  0  0  0  0  0  0  0  0
   36.4210    8.8990    4.9280 C   0  0  1  0  0  0  0  0  0  0  0  0
   42.2330    6.6950    5.0300 C   0  0  0  0  0  0  0  0  0  0  0  0
   43.8310    3.5900    6.2210 C   0  0  0  0  0  0  0  0  0  0  0  0
   44.9090    3.7480    7.2470 C   0  0  1  0  0  0  0  0  0  0  0  0
   45.7210    2.4480    7.2550 C   0  0  0  0  0  0  0  0  0  0  0  0
   46.7250    2.2910    8.4120 C   0  0  0  0  0  0  0  0  0  0  0  0
   41.1080    4.4340    9.4260 C   0  0  0  0  0  0  0  0  0  0  0  0
   39.8400    4.6010   10.2500 C   0  0  0  0  0  0  0  0  0  0  0  0
   36.3460    8.9960    3.3680 C   0  0  1  0  0  0  0  0  0  0  0  0
   40.8910    7.1360    4.4110 C   0  0  2  0  0  0  0  0  0  0  0  0
   36.8770    4.5530   10.6380 C   0  0  0  0  0  0  0  0  0  0  0  0
   35.5130    4.6590   11.3840 C   0  0  0  0  0  0  0  0  0  0  0  0
   38.7210    8.1040    4.8160 O   0  0  0  0  0  0  0  0  0  0  0  0
   35.9330    7.5820    5.3770 N   0  0  0  0  0  0  0  0  0  0  0  0
   35.0250    8.7330    2.9020 O   0  0  0  0  0  0  0  0  0  0  0  0
   36.8210   10.4020    2.9500 C   0  0  2  0  0  0  0  0  0  0  0  0
   36.7980   10.5880    1.5370 O   0  0  0  0  0  0  0  0  0  0  0  0
   38.2420   10.6790    3.4730 C   0  0  2  0  0  0  0  0  0  0  0  0
   38.3130   10.4860    4.8900 O   0  0  0  0  0  0  0  0  0  0  0  0
   38.6960   12.0770    3.1480 C   0  0  0  0  0  0  0  0  0  0  0  0
   39.9730   12.2900    3.6160 O   0  0  0  0  0  0  0  0  0  0  0  0
   43.3040    5.2040    6.7730 N   0  0  0  0  0  0  0  0  0  0  0  0
   41.0850    8.1870    3.4200 N   0  0  0  0  0  0  0  0  0  0  0  0
   39.9610    7.6620    5.4860 C   0  0  1  0  0  0  0  0  0  0  0  0
   39.7080    6.5400    6.5730 C   0  0  2  0  0  0  0  0  0  0  0  0
   38.8240    7.0800    7.6050 O   0  0  0  0  0  0  0  0  0  0  0  0
   41.0820    6.1250    7.2000 C   0  0  1  0  0  0  0  0  0  0  0  0
   40.9350    5.1360    8.1770 O   0  0  0  0  0  0  0  0  0  0  0  0
   39.0510    3.3620   10.4030 N   0  0  0  0  0  0  0  0  0  0  0  0
   37.7700    3.3950   11.1550 C   0  0  0  0  0  0  0  0  0  0  0  0
   34.6600    5.7540   10.8320 N   0  0  0  0  0  0  0  0  0  0  0  0
   43.4730    2.8520    5.5220 O   0  0  0  0  0  0  0  0  0  0  0  0
   47.4140    1.0080    8.2600 N   0  0  0  0  0  0  0  0  0  0  0  0
   45.7760    4.7880    6.8850 O   0  0  0  0  0  0  0  0  0  0  0  0
   37.9736    9.2022    6.4463 H   0  0  0  0  0  0  0  0  0  0  0  0
   41.6016    4.7365    5.6548 H   0  0  0  0  0  0  0  0  0  0  0  0
   35.7878    9.6320    5.3827 H   0  0  0  0  0  0  0  0  0  0  0  0
   42.8586    6.2971    4.2585 H   0  0  0  0  0  0  0  0  0  0  0  0
   42.6906    7.5477    5.4865 H   0  0  0  0  0  0  0  0  0  0  0  0
   44.4741    3.9631    8.2007 H   0  0  0  0  0  0  0  0  0  0  0  0
   46.2680    2.3971    6.3368 H   0  0  0  0  0  0  0  0  0  0  0  0
   45.0073    1.6608    7.3812 H   0  0  0  0  0  0  0  0  0  0  0  0
   46.2045    2.3124    9.3466 H   0  0  0  0  0  0  0  0  0  0  0  0
   47.4342    3.0920    8.3925 H   0  0  0  0  0  0  0  0  0  0  0  0
   41.2813    3.3954    9.2359 H   0  0  0  0  0  0  0  0  0  0  0  0
   41.9472    4.8311    9.9579 H   0  0  0  0  0  0  0  0  0  0  0  0
   39.2240    5.3346    9.7733 H   0  0  0  0  0  0  0  0  0  0  0  0
   40.1474    4.8935   11.2323 H   0  0  0  0  0  0  0  0  0  0  0  0
   36.9802    8.2568    2.9249 H   0  0  0  0  0  0  0  0  0  0  0  0
   40.4631    6.2769    3.9380 H   0  0  0  0  0  0  0  0  0  0  0  0
   37.4068    5.4738   10.7662 H   0  0  0  0  0  0  0  0  0  0  0  0
   36.6612    4.3521    9.6094 H   0  0  0  0  0  0  0  0  0  0  0  0
   35.6992    4.8541   12.4194 H   0  0  0  0  0  0  0  0  0  0  0  0
   34.9909    3.7341   11.2536 H   0  0  0  0  0  0  0  0  0  0  0  0
   36.5097    6.8477    4.9664 H   0  0  0  0  0  0  0  0  0  0  0  0
   34.9646    7.4593    5.0811 H   0  0  0  0  0  0  0  0  0  0  0  0
   34.4130    9.3832    3.2810 H   0  0  0  0  0  0  0  0  0  0  0  0
   36.1320   11.0939    3.3876 H   0  0  0  0  0  0  0  0  0  0  0  0
   37.4171    9.9690    1.1193 H   0  0  0  0  0  0  0  0  0  0  0  0
   38.8898    9.9836    2.9814 H   0  0  0  0  0  0  0  0  0  0  0  0
   38.0312   12.7788    3.6067 H   0  0  0  0  0  0  0  0  0  0  0  0
   38.6909   12.2044    2.0856 H   0  0  0  0  0  0  0  0  0  0  0  0
   39.9875   12.1765    4.5792 H   0  0  0  0  0  0  0  0  0  0  0  0
   43.7982    5.7607    7.4173 H   0  0  0  0  0  0  0  0  0  0  0  0
   41.4929    9.0068    3.8693 H   0  0  0  0  0  0  0  0  0  0  0  0
   40.1856    8.4368    3.0089 H   0  0  0  0  0  0  0  0  0  0  0  0
   40.3849    8.4936    6.0091 H   0  0  0  0  0  0  0  0  0  0  0  0
   39.2507    5.6801    6.1298 H   0  0  0  0  0  0  0  0  0  0  0  0
   39.2364    7.8598    8.0084 H   0  0  0  0  0  0  0  0  0  0  0  0
   41.4874    7.0058    7.6525 H   0  0  0  0  0  0  0  0  0  0  0  0
   39.6521    2.6842   10.8717 H   0  0  0  0  0  0  0  0  0  0  0  0
   37.2570    2.4657   11.0208 H   0  0  0  0  0  0  0  0  0  0  0  0
   37.9777    3.5501   12.1931 H   0  0  0  0  0  0  0  0  0  0  0  0
   35.1384    6.6477   10.9454 H   0  0  0  0  0  0  0  0  0  0  0  0
   33.7715    5.7780   11.3325 H   0  0  0  0  0  0  0  0  0  0  0  0
   46.7309    0.2508    8.2797 H   0  0  0  0  0  0  0  0  0  0  0  0
   48.0786    0.8863    9.0242 H   0  0  0  0  0  0  0  0  0  0  0  0
   46.1707    4.5938    6.0205 H   0  0  0  0  0  0  0  0  0  0  0  0
  1  3  1  0  0  0  0
  1 15  1  0  0  0  0
  1 21  1  0  0  0  0
  1 37  1  1  0  0  0
  2  4  1  0  0  0  0
  2 24  1  0  0  0  0
  2 29  1  0  0  0  0
  2 38  1  6  0  0  0
  3 11  1  0  0  0  0
  3 16  1  0  0  0  0
  3 39  1  1  0  0  0
  4 12  1  0  0  0  0
  4 40  1  0  0  0  0
  4 41  1  0  0  0  0
  5  6  1  0  0  0  0
  5 24  1  0  0  0  0
  5 34  2  0  0  0  0
  6  7  1  0  0  0  0
  6 36  1  0  0  0  0
  6 42  1  1  0  0  0
  7  8  1  0  0  0  0
  7 43  1  0  0  0  0
  7 44  1  0  0  0  0
  8 35  1  0  0  0  0
  8 45  1  0  0  0  0
  8 46  1  0  0  0  0
  9 10  1  0  0  0  0
  9 30  1  0  0  0  0
  9 47  1  0  0  0  0
  9 48  1  0  0  0  0
 10 31  1  0  0  0  0
 10 49  1  0  0  0  0
 10 50  1  0  0  0  0
 11 17  1  0  0  0  0
 11 18  1  0  0  0  0
 11 51  1  6  0  0  0
 12 25  1  0  0  0  0
 12 26  1  0  0  0  0
 12 52  1  6  0  0  0
 13 14  1  0  0  0  0
 13 32  1  0  0  0  0
 13 53  1  0  0  0  0
 13 54  1  0  0  0  0
 14 33  1  0  0  0  0
 14 55  1  0  0  0  0
 14 56  1  0  0  0  0
 15 26  1  0  0  0  0
 16 57  1  0  0  0  0
 16 58  1  0  0  0  0
 17 59  1  0  0  0  0
 18 19  1  0  0  0  0
 18 20  1  0  0  0  0
 18 60  1  1  0  0  0
 19 61  1  0  0  0  0
 20 21  1  0  0  0  0
 20 22  1  0  0  0  0
 20 62  1  6  0  0  0
 22 23  1  0  0  0  0
 22 63  1  0  0  0  0
 22 64  1  0  0  0  0
 23 65  1  0  0  0  0
 24 66  1  0  0  0  0
 25 67  1  0  0  0  0
 25 68  1  0  0  0  0
 26 27  1  0  0  0  0
 26 69  1  1  0  0  0
 27 28  1  0  0  0  0
 27 29  1  0  0  0  0
 27 70  1  6  0  0  0
 28 71  1  0  0  0  0
 29 30  1  0  0  0  0
 29 72  1  1  0  0  0
 31 32  1  0  0  0  0
 31 73  1  0  0  0  0
 32 74  1  0  0  0  0
 32 75  1  0  0  0  0
 33 76  1  0  0  0  0
 33 77  1  0  0  0  0
 35 78  1  0  0  0  0
 35 79  1  0  0  0  0
 36 80  1  0  0  0  0
A    1
C11
A    2
C12
A    3
C21
A    4
C22
A    5
C23
A    6
C24
A    7
C25
A    8
C26
A    9
C29
A   10
C30
A   11
C31
A   12
C32
A   13
C33
A   14
C34
A   15
O11
A   16
N21
A   17
O31
A   18
C41
A   19
O41
A   20
C51
A   21
O51
A   22
C61
A   23
O61
A   24
N12
A   25
N32
A   26
C42
A   27
C52
A   28
O52
A   29
C62
A   30
O62
A   31
N31
A   32
C35
A   33
N35
A   34
O36
A   35
N27
A   36
O28
M  END
>  <InstanceId>
2F4U_AB6_B_41

>  <ChemCompId>
AB6

>  <PdbId>
2F4U

>  <ChainId>
B

>  <ResidueNumber>
41

>  <InsertionCode>


>  <Model>
1

>  <AltIds>


>  <MissingHeavyAtoms>
0

>  <ObservedFormula>
C21 N6 O9

>  <Name>
(2R)-4-AMINO-N-((1R,2S,3R,4R,5S)-5-AMINO-4-[(2-AMINO-2-DEOXY-ALPHA-D-GLUCOPYRANOSYL)OXY]-2-{2-[(3-AMINOPROPYL)AMINO]ETHOXY}-3-HYDROXYCYCLOHEXYL)-2-HYDROXYBUTANAMIDE

>  <SystematicName>
(2R)-4-amino-N-[(1R,2S,3R,4R,5S)-5-amino-4-[(2S,3R,4R,5S,6R)-3-amino-4,5-dihydroxy-6-(hydroxymethyl)oxan-2-yl]oxy-2-[2-(3-aminopropylamino)ethoxy]-3-hydroxy-cyclohexyl]-2-hydroxy-butanamide

>  <Synonyms>


>  <Type>
NON-POLYMER

>  <Formula>
C21 H44 N6 O9

>  <MolecularWeight>
524.609

>  <ModifiedDate>
2011-06-04

>  <Parent>


>  <OneLetterCode>


>  <SubcomponentList>


>  <AmbiguousFlag>
N

>  <InChI>
InChI=1S/C21H44N6O9/c22-3-1-5-26-6-7-34-19-11(27-20(33)12(29)2-4-23)8-10(24)18(17(19)32)36-21-14(25)16(31)15(30)13(9-28)35-21/h10-19,21,26,28-32H,1-9,22-25H2,(H,27,33)/t10-,11+,12+,13+,14+,15+,16+,17-,18+,19-,21+/m0/s1

>  <InChIKey>
MJKNCJCIMZKDAF-BORACOTDSA-N

>  <SMILES>
C1[C@@H]([C@H]([C@@H]([C@H]([C@@H]1NC(=O)[C@@H](CCN)O)OCCNCCCN)O)O[C@@H]2[C@@H]([C@H]([C@@H]([C@H](O2)CO)O)O)N)N

$$$$
