REMARK  14 active torsions:
REMARK  status: ('A' for Active; 'I' for Inactive)
REMARK    1  A    between atoms: C_1  and  O_15 
REMARK    2  A    between atoms: C_2  and  N_24 
REMARK    3  A    between atoms: C_5  and  C_6 
REMARK       I    between atoms: C_5  and  N_24 
REMARK    4  A    between atoms: C_6  and  C_7 
REMARK    5  A    between atoms: C_7  and  C_8 
REMARK    6  A    between atoms: C_9  and  C_10 
REMARK    7  A    between atoms: C_9  and  O_30 
REMARK    8  A    between atoms: C_10  and  N_31 
REMARK    9  A    between atoms: C_13  and  C_14 
REMARK   10  A    between atoms: C_13  and  C_32 
REMARK   11  A    between atoms: C_26  and  O_15 
REMARK   12  A    between atoms: C_20  and  C_22 
REMARK   13  A    between atoms: C_29  and  O_30 
REMARK   14  A    between atoms: N_31  and  C_32 
ROOT
ATOM      1  C   UNL d   1      42.020   5.598   6.132  0.00  0.00     0.138 C 
ATOM      2  C   UNL d   1      42.233   6.695   5.030  0.00  0.00     0.069 C 
ATOM      3  C   UNL d   1      40.891   7.136   4.411  0.00  0.00     0.333 C 
ATOM      4  N   UNL d   1      41.085   8.187   3.420  0.00  0.00     0.619 N 
ATOM      5  C   UNL d   1      39.961   7.662   5.486  0.00  0.00     0.188 C 
ATOM      6  C   UNL d   1      39.708   6.540   6.573  0.00  0.00     0.210 C 
ATOM      7  O   UNL d   1      38.824   7.080   7.605  0.00  0.00    -0.218 OA
ATOM      8  C   UNL d   1      41.082   6.125   7.200  0.00  0.00     0.171 C 
ENDROOT
BRANCH   5   9
ATOM      9  O   UNL d   1      38.721   8.104   4.816  0.00  0.00    -0.327 OA
BRANCH   9  10
ATOM     10  C   UNL d   1      37.887   9.183   5.380  0.00  0.00     0.277 C 
ATOM     11  C   UNL d   1      36.421   8.899   4.928  0.00  0.00     0.390 C 
ATOM     12  C   UNL d   1      36.346   8.996   3.368  0.00  0.00     0.227 C 
ATOM     13  N   UNL d   1      35.933   7.582   5.377  0.00  0.00     0.624 N 
ATOM     14  O   UNL d   1      35.025   8.733   2.902  0.00  0.00    -0.218 OA
ATOM     15  C   UNL d   1      36.821  10.402   2.950  0.00  0.00     0.214 C 
ATOM     16  O   UNL d   1      36.798  10.588   1.537  0.00  0.00    -0.218 OA
ATOM     17  C   UNL d   1      38.242  10.679   3.473  0.00  0.00     0.184 C 
ATOM     18  O   UNL d   1      38.313  10.486   4.890  0.00  0.00    -0.326 OA
BRANCH  17  19
ATOM     19  C   UNL d   1      38.696  12.077   3.148  0.00  0.00     0.214 C 
ATOM     20  O   UNL d   1      39.973  12.290   3.616  0.00  0.00    -0.218 OA
ENDBRANCH  17  19
ENDBRANCH   9  10
ENDBRANCH   5   9
BRANCH   8  21
ATOM     21  O   UNL d   1      40.935   5.136   8.177  0.00  0.00    -0.350 OA
BRANCH  21  22
ATOM     22  C   UNL d   1      41.108   4.434   9.426  0.00  0.00     0.168 C 
BRANCH  22  23
ATOM     23  C   UNL d   1      39.840   4.601  10.250  0.00  0.00     0.152 C 
BRANCH  23  24
ATOM     24  N   UNL d   1      39.051   3.362  10.403  0.00  0.00    -0.293 NA
BRANCH  24  25
ATOM     25  C   UNL d   1      37.770   3.395  11.155  0.00  0.00     0.122 C 
BRANCH  25  26
ATOM     26  C   UNL d   1      36.877   4.553  10.638  0.00  0.00     0.067 C 
BRANCH  26  27
ATOM     27  C   UNL d   1      35.513   4.659  11.384  0.00  0.00     0.340 C 
ATOM     28  N   UNL d   1      34.660   5.754  10.832  0.00  0.00     0.618 N 
ENDBRANCH  26  27
ENDBRANCH  25  26
ENDBRANCH  24  25
ENDBRANCH  23  24
ENDBRANCH  22  23
ENDBRANCH  21  22
ENDBRANCH   8  21
BRANCH   1  29
ATOM     29  N   UNL d   1      43.304   5.204   6.773  0.00  0.00    -0.235 NA
ATOM     30  C   UNL d   1      43.831   3.590   6.221  0.00  0.00     0.282 C 
ATOM     31  O   UNL d   1      43.473   2.852   5.522  0.00  0.00    -0.268 OA
BRANCH  30  32
ATOM     32  C   UNL d   1      44.909   3.748   7.247  0.00  0.00     0.234 C 
ATOM     33  O   UNL d   1      45.776   4.788   6.885  0.00  0.00    -0.213 OA
BRANCH  32  34
ATOM     34  C   UNL d   1      45.721   2.448   7.255  0.00  0.00     0.084 C 
BRANCH  34  35
ATOM     35  C   UNL d   1      46.725   2.291   8.412  0.00  0.00     0.342 C 
ATOM     36  N   UNL d   1      47.414   1.008   8.260  0.00  0.00     0.618 N 
ENDBRANCH  34  35
ENDBRANCH  32  34
ENDBRANCH  30  32
ENDBRANCH   1  29
TORSDOF 14
