@<TRIPOS>MOLECULE
2MXS_PAR_A_101
 87 90 0 0 0
SMALL
GASTEIGER

@<TRIPOS>ATOM
      1 C           4.8919   16.3779    3.0372 C.3     1  UNL1        0.1776
      2 H           4.5270   16.6568    4.0263 H       1  UNL1        0.0927
      3 O           3.7775   16.2405    2.1595 O.3     1  UNL1       -0.3422
      4 C           2.7076   15.3652    2.5997 C.3     1  UNL1        0.1055
      5 H           1.8667   15.6375    1.9469 H       1  UNL1        0.0639
      6 C           2.2303   15.5956    4.0818 C.3     1  UNL1        0.0355
      7 H           3.0741   15.4433    4.7607 H       1  UNL1        0.0485
      8 C           1.1365   14.6142    4.5379 C.3     1  UNL1       -0.0175
      9 C           1.5287   13.1673    4.2247 C.3     1  UNL1        0.0351
     10 H           2.4724   12.9385    4.7387 H       1  UNL1        0.0485
     11 N           0.5718   12.1939    4.7595 N.3     1  UNL1       -0.3250
     12 C           1.7412   13.0371    2.6949 C.3     1  UNL1        0.0990
     13 H           0.8754   13.4231    2.1482 H       1  UNL1        0.0636
     14 C           3.0041   13.8594    2.3474 C.3     1  UNL1        0.1166
     15 H           3.7898   13.5490    3.0502 H       1  UNL1        0.0650
     16 O           3.5805   13.5044    1.0900 O.3     1  UNL1       -0.3402
     17 C           3.0306   14.0150   -0.1066 C.3     1  UNL1        0.1884
     18 H           2.8824   15.0959   -0.0295 H       1  UNL1        0.0938
     19 C           4.0537   13.6969   -1.2085 C.3     1  UNL1        0.1345
     20 H           4.3584   12.6468   -1.1455 H       1  UNL1        0.0671
     21 O           5.2509   14.4683   -1.1009 O.3     1  UNL1       -0.3841
     22 C           3.2207   13.9334   -2.4558 C.3     1  UNL1        0.1205
     23 H           3.6133   13.4602   -3.3608 H       1  UNL1        0.0651
     24 O           2.9902   15.3332   -2.7245 O.3     1  UNL1       -0.3410
     25 C           4.1092   16.1098   -3.1790 C.3     1  UNL1        0.1776
     26 H           4.9185   16.0501   -2.4565 H       1  UNL1        0.0927
     27 C           3.6612   17.5969   -3.2488 C.3     1  UNL1        0.0853
     28 H           3.2402   17.8853   -2.2764 H       1  UNL1        0.0535
     29 N           2.5979   17.7823   -4.2727 N.3     1  UNL1       -0.3211
     30 C           4.9080   18.4602   -3.5492 C.3     1  UNL1        0.1033
     31 H           4.5805   19.4966   -3.6903 H       1  UNL1        0.0637
     32 O           5.7921   18.5042   -2.4184 O.3     1  UNL1       -0.3874
     33 C           5.6303   17.9802   -4.8199 C.3     1  UNL1        0.1100
     34 H           6.6183   18.4534   -4.8886 H       1  UNL1        0.0646
     35 O           4.8949   18.3994   -5.9789 O.3     1  UNL1       -0.3866
     36 C           5.8178   16.4363   -4.8200 C.3     1  UNL1        0.1022
     37 H           6.5829   16.1727   -4.0812 H       1  UNL1        0.0636
     38 O           4.6020   15.7277   -4.4697 O.3     1  UNL1       -0.3425
     39 C           6.2934   15.9706   -6.2190 C.3     1  UNL1        0.0222
     40 N           6.6664   14.5565   -6.2721 N.3     1  UNL1       -0.3276
     41 C           1.8636   13.3267   -1.9921 C.3     1  UNL1        0.1135
     42 H           1.0217   13.9217   -2.3647 H       1  UNL1        0.0647
     43 O           1.8163   13.4024   -0.5308 O.3     1  UNL1       -0.3405
     44 C           1.6325   11.8617   -2.3868 C.3     1  UNL1        0.0730
     45 O           2.6539   10.9982   -1.8970 O.3     1  UNL1       -0.3924
     46 O           1.8798   11.6648    2.3075 O.3     1  UNL1       -0.3876
     47 N           1.7341   16.9645    4.2987 N.3     1  UNL1       -0.3250
     48 C           5.7950   17.5472    2.5424 C.3     1  UNL1        0.0853
     49 H           5.1927   18.4635    2.5075 H       1  UNL1        0.0535
     50 N           6.3461   17.3239    1.1757 N.3     1  UNL1       -0.3211
     51 C           6.9419   17.7218    3.5665 C.3     1  UNL1        0.1033
     52 H           7.6351   18.4926    3.2125 H       1  UNL1        0.0637
     53 O           6.4225   18.1723    4.8253 O.3     1  UNL1       -0.3874
     54 C           7.7012   16.3967    3.7768 C.3     1  UNL1        0.1109
     55 H           8.3956   16.4904    4.6234 H       1  UNL1        0.0646
     56 O           8.5096   16.0899    2.6311 O.3     1  UNL1       -0.3865
     57 C           6.7297   15.2293    4.0531 C.3     1  UNL1        0.1129
     58 H           7.2757   14.2780    3.8910 H       1  UNL1        0.0647
     59 O           5.6535   15.1836    3.0882 O.3     1  UNL1       -0.3415
     60 C           6.1988   15.2150    5.5052 C.3     1  UNL1        0.0730
     61 O           5.2439   14.1724    5.6970 O.3     1  UNL1       -0.3924
     62 H           0.1832   14.8524    4.0510 H       1  UNL1        0.0297
     63 H           0.9773   14.7288    5.6187 H       1  UNL1        0.0297
     64 H          -0.1077   11.9327    4.0425 H       1  UNL1        0.1185
     65 H           0.0477   12.5901    5.5450 H       1  UNL1        0.1185
     66 H           5.1535   14.9903   -0.2850 H       1  UNL1        0.2101
     67 H           2.8533   17.1784   -5.0660 H       1  UNL1        0.1187
     68 H           2.6167   18.7276   -4.6439 H       1  UNL1        0.1187
     69 H           6.3507   17.7079   -2.3924 H       1  UNL1        0.2100
     70 H           4.7553   19.3608   -5.9217 H       1  UNL1        0.2100
     71 H           7.1722   16.5656   -6.5206 H       1  UNL1        0.0448
     72 H           5.5092   16.1329   -6.9568 H       1  UNL1        0.0448
     73 H           7.3940   14.3456   -5.6028 H       1  UNL1        0.1183
     74 H           7.0354   14.3375   -7.1988 H       1  UNL1        0.1183
     75 H           0.6832   11.5001   -1.9720 H       1  UNL1        0.0584
     76 H           1.5887   11.7551   -3.4746 H       1  UNL1        0.0584
     77 H           2.5301   10.9538   -0.9277 H       1  UNL1        0.2095
     78 H           2.2606   11.1854    3.0703 H       1  UNL1        0.2100
     79 H           2.5008   17.6316    4.2420 H       1  UNL1        0.1185
     80 H           1.3485   17.0500    5.2396 H       1  UNL1        0.1185
     81 H           6.3146   16.3112    1.0094 H       1  UNL1        0.1187
     82 H           5.6645   17.6988    0.5079 H       1  UNL1        0.1187
     83 H           5.7927   18.8945    4.6631 H       1  UNL1        0.2100
     84 H           8.1476   16.5886    1.8697 H       1  UNL1        0.2100
     85 H           7.0183   15.0732    6.2121 H       1  UNL1        0.0584
     86 H           5.6893   16.1393    5.7747 H       1  UNL1        0.0584
     87 H           5.6584   13.3409    5.3846 H       1  UNL1        0.2095
@<TRIPOS>BOND
     1     1    48    1
     2     1    59    1
     3     1     3    1
     4     1     2    1
     5     4     6    1
     6     4     5    1
     7     4     3    1
     8     6     7    1
     9     6     8    1
    10     6    47    1
    11     8     9    1
    12     8    62    1
    13     8    63    1
    14     9    12    1
    15     9    11    1
    16     9    10    1
    17    11    64    1
    18    11    65    1
    19    12    13    1
    20    12    14    1
    21    12    46    1
    22    14     4    1
    23    14    16    1
    24    14    15    1
    25    16    17    1
    26    17    18    1
    27    17    19    1
    28    17    43    1
    29    19    22    1
    30    19    21    1
    31    19    20    1
    32    21    66    1
    33    22    23    1
    34    22    24    1
    35    22    41    1
    36    25    27    1
    37    25    38    1
    38    25    26    1
    39    25    24    1
    40    27    30    1
    41    27    29    1
    42    27    28    1
    43    29    67    1
    44    29    68    1
    45    30    32    1
    46    30    31    1
    47    32    69    1
    48    33    30    1
    49    33    34    1
    50    33    35    1
    51    35    70    1
    52    36    33    1
    53    36    37    1
    54    36    38    1
    55    36    39    1
    56    39    40    1
    57    39    71    1
    58    39    72    1
    59    40    73    1
    60    40    74    1
    61    41    43    1
    62    41    44    1
    63    41    42    1
    64    44    45    1
    65    44    75    1
    66    44    76    1
    67    45    77    1
    68    46    78    1
    69    47    79    1
    70    47    80    1
    71    48    51    1
    72    48    50    1
    73    48    49    1
    74    50    81    1
    75    50    82    1
    76    51    54    1
    77    51    53    1
    78    51    52    1
    79    53    83    1
    80    54    55    1
    81    54    56    1
    82    54    57    1
    83    56    84    1
    84    57    59    1
    85    57    60    1
    86    57    58    1
    87    60    61    1
    88    60    85    1
    89    60    86    1
    90    61    87    1
