REMARK  22 active torsions:
REMARK  status: ('A' for Active; 'I' for Inactive)
REMARK    1  A    between atoms: C_1  and  O_2 
REMARK    2  A    between atoms: C_3  and  O_2 
REMARK    3  A    between atoms: C_4  and  N_32 
REMARK    4  A    between atoms: C_6  and  N_7 
REMARK    5  A    between atoms: C_8  and  O_31 
REMARK    6  A    between atoms: C_9  and  O_10 
REMARK    7  A    between atoms: O_10  and  C_11 
REMARK    8  A    between atoms: C_12  and  O_13 
REMARK    9  A    between atoms: C_14  and  O_15 
REMARK   10  A    between atoms: C_16  and  O_15 
REMARK   11  A    between atoms: C_17  and  N_18 
REMARK   12  A    between atoms: C_19  and  O_20 
REMARK   13  A    between atoms: C_21  and  O_22 
REMARK   14  A    between atoms: C_23  and  C_25 
REMARK   15  A    between atoms: C_25  and  N_26 
REMARK   16  A    between atoms: C_27  and  C_29 
REMARK   17  A    between atoms: C_29  and  O_30 
REMARK   18  A    between atoms: C_33  and  N_34 
REMARK   19  A    between atoms: C_35  and  O_36 
REMARK   20  A    between atoms: C_37  and  O_38 
REMARK   21  A    between atoms: C_39  and  C_41 
REMARK   22  A    between atoms: C_41  and  O_42 
ROOT
ATOM      1  C   UNL d   1       2.708  15.365   2.600  0.00  0.00     0.189 C 
ATOM      2  C   UNL d   1       2.230  15.596   4.082  0.00  0.00     0.251 C 
ATOM      3  C   UNL d   1       1.137  14.614   4.538  0.00  0.00     0.076 C 
ATOM      4  C   UNL d   1       1.529  13.167   4.225  0.00  0.00     0.251 C 
ATOM      5  C   UNL d   1       1.741  13.037   2.695  0.00  0.00     0.182 C 
ATOM      6  C   UNL d   1       3.004  13.859   2.347  0.00  0.00     0.186 C 
ENDROOT
BRANCH   6   7
ATOM      7  O   UNL d   1       3.580  13.504   1.090  0.00  0.00    -0.348 OA
BRANCH   7   8
ATOM      8  C   UNL d   1       3.031  14.015  -0.107  0.00  0.00     0.292 C 
ATOM      9  C   UNL d   1       4.054  13.697  -1.208  0.00  0.00     0.205 C 
ATOM     10  C   UNL d   1       3.221  13.933  -2.456  0.00  0.00     0.189 C 
ATOM     11  C   UNL d   1       1.864  13.327  -1.992  0.00  0.00     0.180 C 
ATOM     12  O   UNL d   1       1.816  13.402  -0.531  0.00  0.00    -0.348 OA
BRANCH   9  13
ATOM     13  O   UNL d   1       5.251  14.468  -1.101  0.00  0.00    -0.388 OA
ATOM     14  H   UNL d   1       5.154  14.990  -0.285  0.00  0.00     0.210 HD
ENDBRANCH   9  13
BRANCH  10  15
ATOM     15  O   UNL d   1       2.990  15.333  -2.724  0.00  0.00    -0.348 OA
BRANCH  15  16
ATOM     16  C   UNL d   1       4.109  16.110  -3.179  0.00  0.00     0.296 C 
ATOM     17  C   UNL d   1       3.661  17.597  -3.249  0.00  0.00     0.303 C 
ATOM     18  C   UNL d   1       4.908  18.460  -3.549  0.00  0.00     0.187 C 
ATOM     19  C   UNL d   1       5.630  17.980  -4.820  0.00  0.00     0.179 C 
ATOM     20  C   UNL d   1       5.818  16.436  -4.820  0.00  0.00     0.183 C 
ATOM     21  O   UNL d   1       4.602  15.728  -4.470  0.00  0.00    -0.349 OA
BRANCH  17  22
ATOM     22  N   UNL d   1       2.598  17.782  -4.273  0.00  0.00     0.090 N 
ATOM     23  H   UNL d   1       2.853  17.178  -5.066  0.00  0.00     0.313 HD
ATOM     24  H   UNL d   1       2.617  18.728  -4.644  0.00  0.00     0.313 HD
ENDBRANCH  17  22
BRANCH  18  25
ATOM     25  O   UNL d   1       5.792  18.504  -2.418  0.00  0.00    -0.391 OA
ATOM     26  H   UNL d   1       6.351  17.708  -2.392  0.00  0.00     0.210 HD
ENDBRANCH  18  25
BRANCH  19  27
ATOM     27  O   UNL d   1       4.895  18.399  -5.979  0.00  0.00    -0.390 OA
ATOM     28  H   UNL d   1       4.755  19.361  -5.922  0.00  0.00     0.210 HD
ENDBRANCH  19  27
BRANCH  20  29
ATOM     29  C   UNL d   1       6.293  15.971  -6.219  0.00  0.00     0.301 C 
BRANCH  29  30
ATOM     30  N   UNL d   1       6.666  14.556  -6.272  0.00  0.00     0.080 N 
ATOM     31  H   UNL d   1       7.394  14.346  -5.603  0.00  0.00     0.312 HD
ATOM     32  H   UNL d   1       7.035  14.338  -7.199  0.00  0.00     0.312 HD
ENDBRANCH  29  30
ENDBRANCH  20  29
ENDBRANCH  15  16
ENDBRANCH  10  15
BRANCH  11  33
ATOM     33  C   UNL d   1       1.633  11.862  -2.387  0.00  0.00     0.198 C 
BRANCH  33  34
ATOM     34  O   UNL d   1       2.654  10.998  -1.897  0.00  0.00    -0.398 OA
ATOM     35  H   UNL d   1       2.530  10.954  -0.928  0.00  0.00     0.209 HD
ENDBRANCH  33  34
ENDBRANCH  11  33
ENDBRANCH   7   8
ENDBRANCH   6   7
BRANCH   5  36
ATOM     36  O   UNL d   1       1.880  11.665   2.308  0.00  0.00    -0.391 OA
ATOM     37  H   UNL d   1       2.261  11.185   3.070  0.00  0.00     0.210 HD
ENDBRANCH   5  36
BRANCH   1  38
ATOM     38  O   UNL d   1       3.777  16.241   2.159  0.00  0.00    -0.349 OA
BRANCH  38  39
ATOM     39  C   UNL d   1       4.892  16.378   3.037  0.00  0.00     0.296 C 
ATOM     40  C   UNL d   1       5.795  17.547   2.542  0.00  0.00     0.303 C 
ATOM     41  C   UNL d   1       6.942  17.722   3.567  0.00  0.00     0.187 C 
ATOM     42  C   UNL d   1       7.701  16.397   3.777  0.00  0.00     0.180 C 
ATOM     43  C   UNL d   1       6.730  15.229   4.053  0.00  0.00     0.179 C 
ATOM     44  O   UNL d   1       5.654  15.184   3.088  0.00  0.00    -0.349 OA
BRANCH  40  45
ATOM     45  N   UNL d   1       6.346  17.324   1.176  0.00  0.00     0.090 N 
ATOM     46  H   UNL d   1       6.315  16.311   1.009  0.00  0.00     0.313 HD
ATOM     47  H   UNL d   1       5.665  17.699   0.508  0.00  0.00     0.313 HD
ENDBRANCH  40  45
BRANCH  41  48
ATOM     48  O   UNL d   1       6.423  18.172   4.825  0.00  0.00    -0.391 OA
ATOM     49  H   UNL d   1       5.793  18.895   4.663  0.00  0.00     0.210 HD
ENDBRANCH  41  48
BRANCH  42  50
ATOM     50  O   UNL d   1       8.510  16.090   2.631  0.00  0.00    -0.390 OA
ATOM     51  H   UNL d   1       8.148  16.589   1.870  0.00  0.00     0.210 HD
ENDBRANCH  42  50
BRANCH  43  52
ATOM     52  C   UNL d   1       6.199  15.215   5.505  0.00  0.00     0.198 C 
BRANCH  52  53
ATOM     53  O   UNL d   1       5.244  14.172   5.697  0.00  0.00    -0.398 OA
ATOM     54  H   UNL d   1       5.658  13.341   5.385  0.00  0.00     0.209 HD
ENDBRANCH  52  53
ENDBRANCH  43  52
ENDBRANCH  38  39
ENDBRANCH   1  38
BRANCH   4  55
ATOM     55  N   UNL d   1       0.572  12.194   4.760  0.00  0.00     0.085 N 
ATOM     56  H   UNL d   1      -0.108  11.933   4.043  0.00  0.00     0.313 HD
ATOM     57  H   UNL d   1       0.048  12.590   5.545  0.00  0.00     0.313 HD
ENDBRANCH   4  55
BRANCH   2  58
ATOM     58  N   UNL d   1       1.734  16.965   4.299  0.00  0.00     0.085 N 
ATOM     59  H   UNL d   1       2.501  17.632   4.242  0.00  0.00     0.313 HD
ATOM     60  H   UNL d   1       1.349  17.050   5.240  0.00  0.00     0.313 HD
ENDBRANCH   2  58
TORSDOF 22
