@<TRIPOS>MOLECULE
5BXK_S81_B_301
 47 48 0 0 0
SMALL
GASTEIGER

@<TRIPOS>ATOM
      1 C           0.5003    1.1923   -0.0856 C.3     1  UNL1        0.1776
      2 H           1.0272    0.2352   -0.0285 H       1  UNL1        0.0927
      3 C           0.1486    1.4338   -1.5835 C.3     1  UNL1        0.0856
      4 H           1.0831    1.3624   -2.1571 H       1  UNL1        0.0535
      5 C          -0.8354    0.3432   -2.0574 C.3     1  UNL1        0.1084
      6 H          -1.1994    0.6089   -3.0577 H       1  UNL1        0.0640
      7 C          -2.0364    0.2313   -1.1182 C.3     1  UNL1        0.1555
      8 H          -2.6689   -0.6176   -1.3983 H       1  UNL1        0.0705
      9 C          -1.6270    0.1203    0.3565 C.3     1  UNL1        0.1073
     10 H          -2.5160    0.3403    0.9595 H       1  UNL1        0.0639
     11 C          -1.1564   -1.3078    0.7259 C.3     1  UNL1        0.0225
     12 N          -0.8151   -1.4530    2.1441 N.3     1  UNL1       -0.3276
     13 O          -0.6680    1.1279    0.7330 O.3     1  UNL1       -0.3422
     14 F          -2.7975    1.3587   -1.2650 F       1  UNL1       -0.2400
     15 O          -0.2200   -0.9426   -2.2008 O.3     1  UNL1       -0.3871
     16 N          -0.3820    2.7977   -1.8433 N.3     1  UNL1       -0.3211
     17 O           1.4024    2.2179    0.3665 O.3     1  UNL1       -0.3422
     18 C           1.7603    2.1346    1.7598 C.3     1  UNL1        0.1051
     19 H           0.8409    2.1535    2.3582 H       1  UNL1        0.0639
     20 C           2.5733    0.8540    2.0739 C.3     1  UNL1        0.1101
     21 H           2.0033   -0.0271    1.7719 H       1  UNL1        0.0646
     22 C           3.8986    0.8602    1.2804 C.3     1  UNL1        0.0986
     23 H           4.4544   -0.0568    1.5121 H       1  UNL1        0.0635
     24 C           4.7755    2.0820    1.6604 C.3     1  UNL1        0.0351
     25 H           5.6234    2.1346    0.9654 H       1  UNL1        0.0485
     26 C           3.9901    3.4012    1.5076 C.3     1  UNL1       -0.0175
     27 C           2.5765    3.4127    2.1309 C.3     1  UNL1        0.0355
     28 H           2.0454    4.2809    1.7184 H       1  UNL1        0.0485
     29 N           2.6480    3.6183    3.5902 N.3     1  UNL1       -0.3250
     30 N           5.3343    1.9505    3.0193 N.3     1  UNL1       -0.3250
     31 O           3.6607    0.8425   -0.1368 O.3     1  UNL1       -0.3876
     32 O           2.8218    0.6996    3.4759 O.3     1  UNL1       -0.3866
     33 H          -1.9462   -2.0282    0.4841 H       1  UNL1        0.0448
     34 H          -0.2709   -1.6016    0.1575 H       1  UNL1        0.0448
     35 H          -1.6166   -1.1912    2.7184 H       1  UNL1        0.1183
     36 H          -0.0894   -0.7790    2.3851 H       1  UNL1        0.1183
     37 H           0.7264   -0.9021   -1.9772 H       1  UNL1        0.2100
     38 H          -1.2237    2.9334   -1.2740 H       1  UNL1        0.1187
     39 H          -0.6878    2.8812   -2.8115 H       1  UNL1        0.1187
     40 H           3.8884    3.6157    0.4361 H       1  UNL1        0.0297
     41 H           4.5850    4.2347    1.9064 H       1  UNL1        0.0297
     42 H           2.9958    4.5653    3.7609 H       1  UNL1        0.1185
     43 H           3.4015    3.0303    3.9609 H       1  UNL1        0.1185
     44 H           6.0839    1.2543    2.9859 H       1  UNL1        0.1185
     45 H           4.6284    1.4846    3.6078 H       1  UNL1        0.1185
     46 H           3.1737    1.6622   -0.3649 H       1  UNL1        0.2100
     47 H           2.0812    1.1225    3.9546 H       1  UNL1        0.2100
@<TRIPOS>BOND
     1     1     3    1
     2     1    13    1
     3     1    17    1
     4     1     2    1
     5     3     5    1
     6     3    16    1
     7     3     4    1
     8     5     7    1
     9     5    15    1
    10     5     6    1
    11     7     8    1
    12     7    14    1
    13     9     7    1
    14     9    13    1
    15     9    11    1
    16     9    10    1
    17    11    12    1
    18    11    33    1
    19    11    34    1
    20    12    35    1
    21    12    36    1
    22    15    37    1
    23    16    38    1
    24    16    39    1
    25    17    18    1
    26    18    19    1
    27    18    20    1
    28    20    22    1
    29    20    32    1
    30    20    21    1
    31    22    24    1
    32    22    31    1
    33    22    23    1
    34    24    25    1
    35    24    26    1
    36    24    30    1
    37    26    27    1
    38    26    40    1
    39    26    41    1
    40    27    28    1
    41    27    18    1
    42    27    29    1
    43    29    42    1
    44    29    43    1
    45    30    44    1
    46    30    45    1
    47    31    46    1
    48    32    47    1
