5BXK_S81_B_301
 OpenBabel03221817323D

 47 48  0  0  1  0  0  0  0  0999 V2000
    0.5003    1.1923   -0.0856 C   0  0  2  0  0  0  0  0  0  0  0  0
    1.0272    0.2352   -0.0285 H   0  0  0  0  0  0  0  0  0  0  0  0
    0.1486    1.4338   -1.5835 C   0  0  1  0  0  0  0  0  0  0  0  0
    1.0831    1.3624   -2.1571 H   0  0  0  0  0  0  0  0  0  0  0  0
   -0.8354    0.3432   -2.0574 C   0  0  2  0  0  0  0  0  0  0  0  0
   -1.1994    0.6089   -3.0577 H   0  0  0  0  0  0  0  0  0  0  0  0
   -2.0364    0.2313   -1.1182 C   0  0  1  0  0  0  0  0  0  0  0  0
   -2.6689   -0.6176   -1.3983 H   0  0  0  0  0  0  0  0  0  0  0  0
   -1.6270    0.1203    0.3565 C   0  0  1  0  0  0  0  0  0  0  0  0
   -2.5160    0.3403    0.9595 H   0  0  0  0  0  0  0  0  0  0  0  0
   -1.1564   -1.3078    0.7259 C   0  0  0  0  0  0  0  0  0  0  0  0
   -0.8151   -1.4530    2.1441 N   0  0  0  0  0  0  0  0  0  0  0  0
   -0.6680    1.1279    0.7330 O   0  0  0  0  0  0  0  0  0  0  0  0
   -2.7975    1.3587   -1.2650 F   0  0  0  0  0  0  0  0  0  0  0  0
   -0.2200   -0.9426   -2.2008 O   0  0  0  0  0  0  0  0  0  0  0  0
   -0.3820    2.7977   -1.8433 N   0  0  0  0  0  0  0  0  0  0  0  0
    1.4024    2.2179    0.3665 O   0  0  0  0  0  0  0  0  0  0  0  0
    1.7603    2.1346    1.7598 C   0  0  1  0  0  0  0  0  0  0  0  0
    0.8409    2.1535    2.3582 H   0  0  0  0  0  0  0  0  0  0  0  0
    2.5733    0.8540    2.0739 C   0  0  1  0  0  0  0  0  0  0  0  0
    2.0033   -0.0271    1.7719 H   0  0  0  0  0  0  0  0  0  0  0  0
    3.8986    0.8602    1.2804 C   0  0  2  0  0  0  0  0  0  0  0  0
    4.4544   -0.0568    1.5121 H   0  0  0  0  0  0  0  0  0  0  0  0
    4.7755    2.0820    1.6604 C   0  0  1  0  0  0  0  0  0  0  0  0
    5.6234    2.1346    0.9654 H   0  0  0  0  0  0  0  0  0  0  0  0
    3.9901    3.4012    1.5076 C   0  0  0  0  0  0  0  0  0  0  0  0
    2.5765    3.4127    2.1309 C   0  0  2  0  0  0  0  0  0  0  0  0
    2.0454    4.2809    1.7184 H   0  0  0  0  0  0  0  0  0  0  0  0
    2.6480    3.6183    3.5902 N   0  0  0  0  0  0  0  0  0  0  0  0
    5.3343    1.9505    3.0193 N   0  0  0  0  0  0  0  0  0  0  0  0
    3.6607    0.8425   -0.1368 O   0  0  0  0  0  0  0  0  0  0  0  0
    2.8218    0.6996    3.4759 O   0  0  0  0  0  0  0  0  0  0  0  0
   -1.9462   -2.0282    0.4841 H   0  0  0  0  0  0  0  0  0  0  0  0
   -0.2709   -1.6016    0.1575 H   0  0  0  0  0  0  0  0  0  0  0  0
   -1.6166   -1.1912    2.7184 H   0  0  0  0  0  0  0  0  0  0  0  0
   -0.0894   -0.7790    2.3851 H   0  0  0  0  0  0  0  0  0  0  0  0
    0.7264   -0.9021   -1.9772 H   0  0  0  0  0  0  0  0  0  0  0  0
   -1.2237    2.9334   -1.2740 H   0  0  0  0  0  0  0  0  0  0  0  0
   -0.6878    2.8812   -2.8115 H   0  0  0  0  0  0  0  0  0  0  0  0
    3.8884    3.6157    0.4361 H   0  0  0  0  0  0  0  0  0  0  0  0
    4.5850    4.2347    1.9064 H   0  0  0  0  0  0  0  0  0  0  0  0
    2.9958    4.5653    3.7609 H   0  0  0  0  0  0  0  0  0  0  0  0
    3.4015    3.0303    3.9609 H   0  0  0  0  0  0  0  0  0  0  0  0
    6.0839    1.2543    2.9859 H   0  0  0  0  0  0  0  0  0  0  0  0
    4.6284    1.4846    3.6078 H   0  0  0  0  0  0  0  0  0  0  0  0
    3.1737    1.6622   -0.3649 H   0  0  0  0  0  0  0  0  0  0  0  0
    2.0812    1.1225    3.9546 H   0  0  0  0  0  0  0  0  0  0  0  0
  1  3  1  6  0  0  0
  1 13  1  0  0  0  0
  1 17  1  0  0  0  0
  1  2  1  0  0  0  0
  3  5  1  6  0  0  0
  3 16  1  0  0  0  0
  3  4  1  0  0  0  0
  5  7  1  1  0  0  0
  5 15  1  0  0  0  0
  5  6  1  0  0  0  0
  7  8  1  6  0  0  0
  7 14  1  0  0  0  0
  9  7  1  6  0  0  0
  9 13  1  0  0  0  0
  9 11  1  0  0  0  0
  9 10  1  0  0  0  0
 11 12  1  0  0  0  0
 11 33  1  0  0  0  0
 11 34  1  0  0  0  0
 12 35  1  0  0  0  0
 12 36  1  0  0  0  0
 15 37  1  0  0  0  0
 16 38  1  0  0  0  0
 16 39  1  0  0  0  0
 17 18  1  0  0  0  0
 18 19  1  0  0  0  0
 18 20  1  1  0  0  0
 20 22  1  6  0  0  0
 20 32  1  0  0  0  0
 20 21  1  0  0  0  0
 22 24  1  1  0  0  0
 22 31  1  0  0  0  0
 22 23  1  0  0  0  0
 24 25  1  6  0  0  0
 24 26  1  0  0  0  0
 24 30  1  0  0  0  0
 26 27  1  0  0  0  0
 26 40  1  0  0  0  0
 26 41  1  0  0  0  0
 27 28  1  0  0  0  0
 27 18  1  6  0  0  0
 27 29  1  0  0  0  0
 29 42  1  0  0  0  0
 29 43  1  0  0  0  0
 30 44  1  0  0  0  0
 30 45  1  0  0  0  0
 31 46  1  0  0  0  0
 32 47  1  0  0  0  0
M  END
$$$$
