REMARK  10 active torsions:
REMARK  status: ('A' for Active; 'I' for Inactive)
REMARK    1  A    between atoms: C_1  and  O_12 
REMARK    2  A    between atoms: C_2  and  N_11 
REMARK    3  A    between atoms: C_3  and  O_10 
REMARK    4  A    between atoms: C_5  and  C_6 
REMARK    5  A    between atoms: C_6  and  N_7 
REMARK    6  A    between atoms: O_12  and  C_13 
REMARK    7  A    between atoms: C_14  and  O_22 
REMARK    8  A    between atoms: C_15  and  O_21 
REMARK    9  A    between atoms: C_16  and  N_20 
REMARK   10  A    between atoms: C_18  and  N_19 
ROOT
ATOM      1  O   UNL d   1       1.402   2.218   0.366  0.00  0.00    -0.349 OA
ENDROOT
BRANCH   1   2
ATOM      2  C   UNL d   1       0.500   1.192  -0.086  0.00  0.00     0.296 C 
ATOM      3  C   UNL d   1       0.149   1.434  -1.583  0.00  0.00     0.303 C 
ATOM      4  C   UNL d   1      -0.835   0.343  -2.057  0.00  0.00     0.192 C 
ATOM      5  C   UNL d   1      -2.036   0.231  -1.118  0.00  0.00     0.231 C 
ATOM      6  F   UNL d   1      -2.797   1.359  -1.265  0.00  0.00    -0.244 F 
ATOM      7  C   UNL d   1      -1.627   0.120   0.356  0.00  0.00     0.189 C 
ATOM      8  O   UNL d   1      -0.668   1.128   0.733  0.00  0.00    -0.349 OA
BRANCH   3   9
ATOM      9  N   UNL d   1      -0.382   2.798  -1.843  0.00  0.00     0.090 N 
ATOM     10  H   UNL d   1      -1.224   2.933  -1.274  0.00  0.00     0.313 HD
ATOM     11  H   UNL d   1      -0.688   2.881  -2.812  0.00  0.00     0.313 HD
ENDBRANCH   3   9
BRANCH   4  12
ATOM     12  O   UNL d   1      -0.220  -0.943  -2.201  0.00  0.00    -0.390 OA
ATOM     13  H   UNL d   1       0.726  -0.902  -1.977  0.00  0.00     0.210 HD
ENDBRANCH   4  12
BRANCH   7  14
ATOM     14  C   UNL d   1      -1.156  -1.308   0.726  0.00  0.00     0.301 C 
BRANCH  14  15
ATOM     15  N   UNL d   1      -0.815  -1.453   2.144  0.00  0.00     0.080 N 
ATOM     16  H   UNL d   1      -1.617  -1.191   2.718  0.00  0.00     0.312 HD
ATOM     17  H   UNL d   1      -0.089  -0.779   2.385  0.00  0.00     0.312 HD
ENDBRANCH  14  15
ENDBRANCH   7  14
ENDBRANCH   1   2
BRANCH   1  18
ATOM     18  C   UNL d   1       1.760   2.135   1.760  0.00  0.00     0.189 C 
ATOM     19  C   UNL d   1       2.573   0.854   2.074  0.00  0.00     0.180 C 
ATOM     20  C   UNL d   1       3.899   0.860   1.280  0.00  0.00     0.182 C 
ATOM     21  C   UNL d   1       4.776   2.082   1.660  0.00  0.00     0.251 C 
ATOM     22  C   UNL d   1       3.990   3.401   1.508  0.00  0.00     0.076 C 
ATOM     23  C   UNL d   1       2.576   3.413   2.131  0.00  0.00     0.251 C 
BRANCH  19  24
ATOM     24  O   UNL d   1       2.822   0.700   3.476  0.00  0.00    -0.390 OA
ATOM     25  H   UNL d   1       2.081   1.123   3.955  0.00  0.00     0.210 HD
ENDBRANCH  19  24
BRANCH  20  26
ATOM     26  O   UNL d   1       3.661   0.843  -0.137  0.00  0.00    -0.391 OA
ATOM     27  H   UNL d   1       3.174   1.662  -0.365  0.00  0.00     0.210 HD
ENDBRANCH  20  26
BRANCH  21  28
ATOM     28  N   UNL d   1       5.334   1.950   3.019  0.00  0.00     0.085 N 
ATOM     29  H   UNL d   1       6.084   1.254   2.986  0.00  0.00     0.313 HD
ATOM     30  H   UNL d   1       4.628   1.485   3.608  0.00  0.00     0.313 HD
ENDBRANCH  21  28
BRANCH  23  31
ATOM     31  N   UNL d   1       2.648   3.618   3.590  0.00  0.00     0.085 N 
ATOM     32  H   UNL d   1       2.996   4.565   3.761  0.00  0.00     0.313 HD
ATOM     33  H   UNL d   1       3.401   3.030   3.961  0.00  0.00     0.313 HD
ENDBRANCH  23  31
ENDBRANCH   1  18
TORSDOF 10
