REMARK  0 active torsions:
REMARK  status: ('A' for Active; 'I' for Inactive)
ROOT
ATOM      1  N   UNL d   1      -1.534   1.105  -0.000  0.00  0.00    -0.335 N 
ATOM      2  H   UNL d   1      -1.865   2.060   0.000  0.00  0.00     0.168 HD
ATOM      3  C   UNL d   1      -0.246   0.671  -0.001  0.00  0.00     0.145 A 
ATOM      4  N   UNL d   1       0.903   1.409  -0.001  0.00  0.00    -0.292 N 
ATOM      5  H   UNL d   1       0.923   2.421  -0.001  0.00  0.00     0.172 HD
ATOM      6  C   UNL d   1       2.109   0.739  -0.002  0.00  0.00     0.328 A 
ATOM      7  O   UNL d   1       3.175   1.348  -0.002  0.00  0.00    -0.247 OA
ATOM      8  N   UNL d   1       2.066  -0.641  -0.002  0.00  0.00    -0.273 N 
ATOM      9  H   UNL d   1       2.953  -1.119  -0.002  0.00  0.00     0.173 HD
ATOM     10  C   UNL d   1       0.940  -1.454  -0.002  0.00  0.00     0.282 A 
ATOM     11  O   UNL d   1       1.025  -2.678  -0.002  0.00  0.00    -0.265 OA
ATOM     12  C   UNL d   1      -0.297  -0.699  -0.001  0.00  0.00     0.170 A 
ATOM     13  N   UNL d   1      -1.602  -1.127  -0.001  0.00  0.00    -0.234 NA
ATOM     14  C   UNL d   1      -2.321  -0.022  -0.000  0.00  0.00     0.209 A 
ENDROOT
TORSDOF 0
