@<TRIPOS>MOLECULE
3GAO_XAN_A_90
 15 16 0 0 0
SMALL
GASTEIGER

@<TRIPOS>ATOM
      1 N          -1.5345    1.1049   -0.0003 N.ar    1  UNL1       -0.3305
      2 H          -1.8647    2.0597    0.0000 H       1  UNL1        0.1682
      3 C          -0.2462    0.6712   -0.0009 C.ar    1  UNL1        0.1449
      4 N           0.9032    1.4091   -0.0012 N.ar    1  UNL1       -0.2922
      5 H           0.9230    2.4206   -0.0008 H       1  UNL1        0.1718
      6 C           2.1089    0.7387   -0.0016 C.ar    1  UNL1        0.3283
      7 O           3.1751    1.3481   -0.0016 O.2     1  UNL1       -0.2466
      8 N           2.0664   -0.6413   -0.0020 N.ar    1  UNL1       -0.2732
      9 H           2.9534   -1.1187   -0.0024 H       1  UNL1        0.1735
     10 C           0.9403   -1.4540   -0.0019 C.ar    1  UNL1        0.2816
     11 O           1.0251   -2.6778   -0.0022 O.2     1  UNL1       -0.2653
     12 C          -0.2975   -0.6986   -0.0012 C.ar    1  UNL1        0.1700
     13 N          -1.6017   -1.1268   -0.0007 N.ar    1  UNL1       -0.2289
     14 C          -2.3205   -0.0216   -0.0001 C.ar    1  UNL1        0.0957
     15 H          -3.4019    0.0285    0.0006 H       1  UNL1        0.1027
@<TRIPOS>BOND
     1     1     2    1
     2     1     3   ar
     3     1    14   ar
     4     3     4   ar
     5     3    12   ar
     6     4     5    1
     7     4     6   ar
     8     6     7    2
     9     6     8   ar
    10     8     9    1
    11     8    10   ar
    12    10    11    2
    13    10    12   ar
    14    12    13   ar
    15    13    14   ar
    16    14    15    1
