@<TRIPOS>MOLECULE
1UUI_P12_B_1046
 52 53 0 0 0
SMALL
GASTEIGER

@<TRIPOS>ATOM
      1 C          -0.6136   -1.2149   -0.1171 C.ar    1  UNL1       -0.0165
      2 C          -1.3998   -0.0736   -0.2302 C.ar    1  UNL1        0.1208
      3 C          -0.7797    1.1724   -0.2436 C.ar    1  UNL1       -0.0082
      4 C           0.6268    1.2897   -0.1711 C.ar    1  UNL1        0.0420
      5 C           1.4154    0.1224   -0.1284 C.ar    1  UNL1        0.1289
      6 C           0.7801   -1.1232   -0.0674 C.ar    1  UNL1       -0.0160
      7 O           2.7828    0.2868   -0.1189 O.3     1  UNL1       -0.4913
      8 C           3.5447   -0.8460   -0.5701 C.3     1  UNL1        0.0944
      9 C           5.0362   -0.5137   -0.4834 C.3     1  UNL1        0.0216
     10 C           5.4723   -0.3238    0.9650 C.3     1  UNL1       -0.0323
     11 N           6.9309   -0.0518    1.0210 N.4     1  UNL1        0.2186
     12 H           7.4871   -0.8424    0.6633 H       1  UNL1        0.1994
     13 H           7.2071    0.7842    0.4893 H       1  UNL1        0.1994
     14 H           7.2395    0.0988    1.9934 H       1  UNL1        0.1994
     15 C           1.2217    2.6759   -0.1543 C.3     1  UNL1       -0.0021
     16 N           1.6704    3.1737   -1.5027 N.4     1  UNL1        0.2428
     17 H           2.3129    2.4611   -1.8602 H       1  UNL1        0.2039
     18 C           0.5416    3.3047   -2.5384 C.3     1  UNL1       -0.0018
     19 C           1.1654    3.6592   -3.9026 C.3     1  UNL1        0.1005
     20 N           1.8824    4.9505   -3.7970 N.pl3   1  UNL1       -0.2150
     21 C           2.9676    4.9110   -2.8024 C.3     1  UNL1        0.1005
     22 C           2.4263    4.5068   -1.4115 C.3     1  UNL1       -0.0018
     23 C           1.2175    6.1150   -4.0816 C.cat   1  UNL1        0.3624
     24 N           1.4146    7.2832   -3.6013 N.2     1  UNL1       -0.1335
     25 N           0.2287    6.0028   -4.9912 N.pl3   1  UNL1       -0.2518
     26 O          -2.7406   -0.3062   -0.3047 O.3     1  UNL1       -0.4951
     27 C          -3.5993    0.8141   -0.4855 C.3     1  UNL1        0.0788
     28 H          -1.0939   -2.1922   -0.0657 H       1  UNL1        0.0655
     29 H          -1.3831    2.0744   -0.3051 H       1  UNL1        0.0660
     30 H           1.3184   -2.0602    0.0371 H       1  UNL1        0.0655
     31 H           3.2828   -1.0625   -1.6132 H       1  UNL1        0.0698
     32 H           3.3593   -1.7298    0.0497 H       1  UNL1        0.0698
     33 H           5.2413    0.4015   -1.0517 H       1  UNL1        0.0350
     34 H           5.6107   -1.3273   -0.9420 H       1  UNL1        0.0350
     35 H           5.2980   -1.2221    1.5645 H       1  UNL1        0.0814
     36 H           4.9743    0.5308    1.4323 H       1  UNL1        0.0814
     37 H           2.1017    2.6881    0.5005 H       1  UNL1        0.0868
     38 H           0.5130    3.4090    0.2483 H       1  UNL1        0.0868
     39 H          -0.1429    4.0803   -2.1744 H       1  UNL1        0.0844
     40 H           0.0288    2.3437   -2.6052 H       1  UNL1        0.0844
     41 H           0.3894    3.6554   -4.6747 H       1  UNL1        0.0688
     42 H           1.8826    2.8805   -4.1906 H       1  UNL1        0.0688
     43 H           3.5060    5.8618   -2.7380 H       1  UNL1        0.0688
     44 H           3.7087    4.1697   -3.1259 H       1  UNL1        0.0688
     45 H           1.7258    5.2492   -1.0135 H       1  UNL1        0.0844
     46 H           3.2522    4.3601   -0.7075 H       1  UNL1        0.0844
     47 H           2.1976    7.3466   -2.9606 H       1  UNL1        0.3058
     48 H           0.5568    5.6176   -5.8715 H       1  UNL1        0.2412
     49 H          -0.1341    6.9363   -5.1851 H       1  UNL1        0.2412
     50 H          -4.6310    0.4512   -0.4939 H       1  UNL1        0.0660
     51 H          -3.4042    1.3016   -1.4468 H       1  UNL1        0.0660
     52 H          -3.5020    1.5244    0.3419 H       1  UNL1        0.0660
@<TRIPOS>BOND
     1     1     2   ar
     2     1     6   ar
     3     1    28    1
     4     2     3   ar
     5     2    26    1
     6     3     4   ar
     7     3    29    1
     8     4     5   ar
     9     4    15    1
    10     5     6   ar
    11     5     7    1
    12     6    30    1
    13     7     8    1
    14     8     9    1
    15     8    31    1
    16     8    32    1
    17     9    10    1
    18     9    33    1
    19     9    34    1
    20    10    11    1
    21    10    35    1
    22    10    36    1
    23    11    12    1
    24    11    13    1
    25    11    14    1
    26    15    16    1
    27    15    37    1
    28    15    38    1
    29    16    17    1
    30    16    18    1
    31    16    22    1
    32    18    19    1
    33    18    39    1
    34    18    40    1
    35    19    20    1
    36    19    41    1
    37    19    42    1
    38    20    21    1
    39    20    23    1
    40    21    22    1
    41    21    43    1
    42    21    44    1
    43    22    45    1
    44    22    46    1
    45    23    24    2
    46    23    25    1
    47    24    47    1
    48    25    48    1
    49    25    49    1
    50    26    27    1
    51    27    50    1
    52    27    51    1
    53    27    52    1
