REMARK  8 active torsions:
REMARK  status: ('A' for Active; 'I' for Inactive)
REMARK    1  A    between atoms: C_2  and  O_26 
REMARK    2  A    between atoms: C_4  and  C_15 
REMARK    3  A    between atoms: C_5  and  O_7 
REMARK    4  A    between atoms: O_7  and  C_8 
REMARK    5  A    between atoms: C_8  and  C_9 
REMARK    6  A    between atoms: C_9  and  C_10 
REMARK    7  A    between atoms: C_10  and  N_11 
REMARK    8  A    between atoms: C_15  and  N_16 
REMARK       I    between atoms: N_20  and  C_23 
REMARK       I    between atoms: C_23  and  N_25 
ROOT
ATOM      1  C   UNL d   1      -0.614  -1.215  -0.117  0.00  0.00     0.039 A 
ATOM      2  C   UNL d   1      -1.400  -0.074  -0.230  0.00  0.00     0.069 A 
ATOM      3  C   UNL d   1      -0.780   1.172  -0.244  0.00  0.00     0.048 A 
ATOM      4  C   UNL d   1       0.627   1.290  -0.171  0.00  0.00     0.004 A 
ATOM      5  C   UNL d   1       1.415   0.122  -0.128  0.00  0.00     0.076 A 
ATOM      6  C   UNL d   1       0.780  -1.123  -0.067  0.00  0.00     0.040 A 
ENDROOT
BRANCH   4   7
ATOM      7  C   UNL d   1       1.222   2.676  -0.154  0.00  0.00     0.276 C 
BRANCH   7   8
ATOM      8  N   UNL d   1       1.670   3.174  -1.503  0.00  0.00    -0.064 N 
ATOM      9  H   UNL d   1       2.313   2.461  -1.860  0.00  0.00     0.280 HD
ATOM     10  C   UNL d   1       0.542   3.305  -2.538  0.00  0.00     0.255 C 
ATOM     11  C   UNL d   1       1.165   3.659  -3.903  0.00  0.00     0.153 C 
ATOM     12  N   UNL d   1       1.882   4.950  -3.797  0.00  0.00    -0.354 N 
ATOM     13  C   UNL d   1       2.968   4.911  -2.802  0.00  0.00     0.153 C 
ATOM     14  C   UNL d   1       1.218   6.115  -4.082  0.00  0.00     0.167 C 
ATOM     15  C   UNL d   1       2.426   4.507  -1.411  0.00  0.00     0.255 C 
ATOM     16  N   UNL d   1       1.415   7.283  -3.601  0.00  0.00    -0.274 NA
ATOM     17  N   UNL d   1       0.229   6.003  -4.991  0.00  0.00    -0.273 NA
ATOM     18  H   UNL d   1       2.198   7.347  -2.961  0.00  0.00     0.189 HD
ATOM     19  H   UNL d   1       0.557   5.618  -5.872  0.00  0.00     0.127 HD
ATOM     20  H   UNL d   1      -0.134   6.936  -5.185  0.00  0.00     0.127 HD
ENDBRANCH   7   8
ENDBRANCH   4   7
BRANCH   5  21
ATOM     21  O   UNL d   1       2.783   0.287  -0.119  0.00  0.00    -0.350 OA
BRANCH  21  22
ATOM     22  C   UNL d   1       3.545  -0.846  -0.570  0.00  0.00     0.177 C 
BRANCH  22  23
ATOM     23  C   UNL d   1       5.036  -0.514  -0.483  0.00  0.00     0.054 C 
BRANCH  23  24
ATOM     24  C   UNL d   1       5.472  -0.324   0.965  0.00  0.00     0.231 C 
BRANCH  24  25
ATOM     25  N   UNL d   1       6.931  -0.052   1.021  0.00  0.00    -0.079 N 
ATOM     26  H   UNL d   1       7.487  -0.842   0.663  0.00  0.00     0.274 HD
ATOM     27  H   UNL d   1       7.207   0.784   0.489  0.00  0.00     0.274 HD
ATOM     28  H   UNL d   1       7.239   0.099   1.993  0.00  0.00     0.274 HD
ENDBRANCH  24  25
ENDBRANCH  23  24
ENDBRANCH  22  23
ENDBRANCH  21  22
ENDBRANCH   5  21
BRANCH   2  29
ATOM     29  O   UNL d   1      -2.741  -0.306  -0.305  0.00  0.00    -0.356 OA
ATOM     30  C   UNL d   1      -3.599   0.814  -0.485  0.00  0.00     0.210 C 
ENDBRANCH   2  29
TORSDOF 8
