1YRJ_AM2_A_151
 OpenBabel03221817013D

 78 81  0  0  1  0  0  0  0  0999 V2000
    1.2879    4.0860   -2.3166 C   0  0  2  0  0  0  0  0  0  0  0  0
    0.9340    4.9594   -2.8699 H   0  0  0  0  0  0  0  0  0  0  0  0
    0.5297    2.8406   -2.8855 C   0  0  1  0  0  0  0  0  0  0  0  0
    0.8051    2.7722   -3.9495 H   0  0  0  0  0  0  0  0  0  0  0  0
    1.0432    1.5750   -2.1918 C   0  0  0  0  0  0  0  0  0  0  0  0
    2.5282    1.4647   -2.5034 C   0  0  1  0  0  0  0  0  0  0  0  0
    2.5913    1.2590   -3.5821 H   0  0  0  0  0  0  0  0  0  0  0  0
    3.2814    2.7464   -2.1265 C   0  0  1  0  0  0  0  0  0  0  0  0
    3.3988    2.8190   -1.0374 H   0  0  0  0  0  0  0  0  0  0  0  0
    4.6671    2.6227   -2.7792 C   0  0  1  0  0  0  0  0  0  0  0  0
    5.2880    3.4866   -2.5169 H   0  0  0  0  0  0  0  0  0  0  0  0
    5.3704    1.3080   -2.3292 C   0  0  1  0  0  0  0  0  0  0  0  0
    5.5905    1.4727   -1.2654 H   0  0  0  0  0  0  0  0  0  0  0  0
    4.4114    0.0522   -2.3280 C   0  0  2  0  0  0  0  0  0  0  0  0
    4.2945   -0.3460   -3.3439 H   0  0  0  0  0  0  0  0  0  0  0  0
    3.1197    0.3816   -1.7930 O   0  0  0  0  0  0  0  0  0  0  0  0
    5.0274   -0.9575   -1.5029 O   0  0  0  0  0  0  0  0  0  0  0  0
    4.1853   -2.0987   -1.2914 C   0  0  2  0  0  0  0  0  0  0  0  0
    3.2017   -1.7719   -0.9425 H   0  0  0  0  0  0  0  0  0  0  0  0
    4.8301   -2.9722   -0.1821 C   0  0  1  0  0  0  0  0  0  0  0  0
    4.8552   -2.4004    0.7541 H   0  0  0  0  0  0  0  0  0  0  0  0
    4.0358   -4.2748    0.0073 C   0  0  2  0  0  0  0  0  0  0  0  0
    4.5851   -4.9461    0.6825 H   0  0  0  0  0  0  0  0  0  0  0  0
    3.8027   -5.0029   -1.3455 C   0  0  1  0  0  0  0  0  0  0  0  0
    3.0841   -5.8155   -1.1936 H   0  0  0  0  0  0  0  0  0  0  0  0
    3.2224   -4.0107   -2.3885 C   0  0  1  0  0  0  0  0  0  0  0  0
    3.2631   -4.4793   -3.3805 H   0  0  0  0  0  0  0  0  0  0  0  0
    1.7386   -3.6582   -2.1356 C   0  0  0  0  0  0  0  0  0  0  0  0
    1.2530   -2.7208   -3.1047 O   0  0  0  0  0  0  0  0  0  0  0  0
    4.0750   -2.8483   -2.5024 O   0  0  0  0  0  0  0  0  0  0  0  0
    5.0423   -5.6095   -1.8837 N   0  0  0  0  0  0  0  0  0  0  0  0
    2.7670   -4.0335    0.6249 O   0  0  0  0  0  0  0  0  0  0  0  0
    6.1946   -3.3077   -0.4904 O   0  0  0  0  0  0  0  0  0  0  0  0
    6.7182    1.0634   -2.9165 N   0  0  0  0  0  0  0  0  0  0  0  0
    6.8048    1.1716   -4.3661 C   0  0  0  0  0  0  0  0  0  0  0  0
    4.4634    2.6919   -4.2046 O   0  0  0  0  0  0  0  0  0  0  0  0
    2.6815    3.9560   -2.6099 O   0  0  0  0  0  0  0  0  0  0  0  0
   -0.9396    2.9262   -2.8428 N   0  0  0  0  0  0  0  0  0  0  0  0
    1.0043    4.2888   -0.9188 O   0  0  0  0  0  0  0  0  0  0  0  0
    1.7066    5.3865   -0.2979 C   0  0  1  0  0  0  0  0  0  0  0  0
    2.7798    5.2469   -0.4842 H   0  0  0  0  0  0  0  0  0  0  0  0
    1.2856    6.7862   -0.8075 C   0  0  1  0  0  0  0  0  0  0  0  0
    1.3909    6.8258   -1.8938 H   0  0  0  0  0  0  0  0  0  0  0  0
   -0.1798    7.1205   -0.4524 C   0  0  2  0  0  0  0  0  0  0  0  0
   -0.3668    8.1623   -0.7348 H   0  0  0  0  0  0  0  0  0  0  0  0
   -0.4968    6.9818    1.0642 C   0  0  1  0  0  0  0  0  0  0  0  0
   -1.5887    6.9124    1.1776 H   0  0  0  0  0  0  0  0  0  0  0  0
    0.0803    5.6909    1.6810 C   0  0  0  0  0  0  0  0  0  0  0  0
    1.5087    5.3110    1.2505 C   0  0  2  0  0  0  0  0  0  0  0  0
    1.6749    4.2714    1.5618 H   0  0  0  0  0  0  0  0  0  0  0  0
    2.5024    6.1411    1.9613 N   0  0  0  0  0  0  0  0  0  0  0  0
   -0.0801    8.1668    1.8414 N   0  0  0  0  0  0  0  0  0  0  0  0
   -1.1224    6.3556   -1.2069 O   0  0  0  0  0  0  0  0  0  0  0  0
    2.1540    7.8077   -0.2830 O   0  0  0  0  0  0  0  0  0  0  0  0
    0.5267    0.6781   -2.5592 H   0  0  0  0  0  0  0  0  0  0  0  0
    0.8700    1.6020   -1.1080 H   0  0  0  0  0  0  0  0  0  0  0  0
    1.1221   -4.5627   -2.1927 H   0  0  0  0  0  0  0  0  0  0  0  0
    1.5628   -3.1963   -1.1663 H   0  0  0  0  0  0  0  0  0  0  0  0
    1.5456   -3.0233   -3.9789 H   0  0  0  0  0  0  0  0  0  0  0  0
    5.7130   -5.7602   -1.1219 H   0  0  0  0  0  0  0  0  0  0  0  0
    5.4939   -4.9490   -2.5145 H   0  0  0  0  0  0  0  0  0  0  0  0
    2.8704   -3.3526    1.3138 H   0  0  0  0  0  0  0  0  0  0  0  0
    6.3254   -3.0739   -1.4293 H   0  0  0  0  0  0  0  0  0  0  0  0
    7.0073    0.1210   -2.6380 H   0  0  0  0  0  0  0  0  0  0  0  0
    6.6845    2.2016   -4.7098 H   0  0  0  0  0  0  0  0  0  0  0  0
    6.0855    0.5213   -4.8796 H   0  0  0  0  0  0  0  0  0  0  0  0
    7.8065    0.8740   -4.6906 H   0  0  0  0  0  0  0  0  0  0  0  0
    4.0457    3.5653   -4.3590 H   0  0  0  0  0  0  0  0  0  0  0  0
   -1.2735    2.5781   -1.9392 H   0  0  0  0  0  0  0  0  0  0  0  0
   -1.3058    2.2492   -3.5230 H   0  0  0  0  0  0  0  0  0  0  0  0
   -0.5856    4.8592    1.4254 H   0  0  0  0  0  0  0  0  0  0  0  0
    0.0337    5.7599    2.7805 H   0  0  0  0  0  0  0  0  0  0  0  0
    2.8750    5.5865    2.7412 H   0  0  0  0  0  0  0  0  0  0  0  0
    2.0220    6.9013    2.4580 H   0  0  0  0  0  0  0  0  0  0  0  0
   -0.6048    8.9719    1.4721 H   0  0  0  0  0  0  0  0  0  0  0  0
    0.8896    8.3957    1.6215 H   0  0  0  0  0  0  0  0  0  0  0  0
   -0.7144    5.5224   -1.5002 H   0  0  0  0  0  0  0  0  0  0  0  0
    2.6757    7.4043    0.4480 H   0  0  0  0  0  0  0  0  0  0  0  0
  1  2  1  0  0  0  0
  1  3  1  6  0  0  0
  1 37  1  0  0  0  0
  1 39  1  0  0  0  0
  3  5  1  0  0  0  0
  3 38  1  0  0  0  0
  3  4  1  6  0  0  0
  5  6  1  0  0  0  0
  5 55  1  0  0  0  0
  5 56  1  0  0  0  0
  6  7  1  0  0  0  0
  6  8  1  1  0  0  0
  6 16  1  0  0  0  0
  8  9  1  0  0  0  0
  8 10  1  6  0  0  0
  8 37  1  0  0  0  0
 10 11  1  0  0  0  0
 10 12  1  1  0  0  0
 10 36  1  0  0  0  0
 12 13  1  0  0  0  0
 12 14  1  6  0  0  0
 12 34  1  0  0  0  0
 14 16  1  0  0  0  0
 14 17  1  0  0  0  0
 14 15  1  6  0  0  0
 18 20  1  1  0  0  0
 18 30  1  0  0  0  0
 18 19  1  0  0  0  0
 18 17  1  0  0  0  0
 20 22  1  1  0  0  0
 20 33  1  0  0  0  0
 20 21  1  0  0  0  0
 22 24  1  6  0  0  0
 22 32  1  0  0  0  0
 22 23  1  0  0  0  0
 24 25  1  0  0  0  0
 24 26  1  6  0  0  0
 24 31  1  0  0  0  0
 26 30  1  0  0  0  0
 26 28  1  0  0  0  0
 26 27  1  6  0  0  0
 28 29  1  0  0  0  0
 28 57  1  0  0  0  0
 28 58  1  0  0  0  0
 29 59  1  0  0  0  0
 31 60  1  0  0  0  0
 31 61  1  0  0  0  0
 32 62  1  0  0  0  0
 33 63  1  0  0  0  0
 34 35  1  0  0  0  0
 34 64  1  0  0  0  0
 35 65  1  0  0  0  0
 35 66  1  0  0  0  0
 35 67  1  0  0  0  0
 36 68  1  0  0  0  0
 38 69  1  0  0  0  0
 38 70  1  0  0  0  0
 39 40  1  0  0  0  0
 40 41  1  0  0  0  0
 40 42  1  6  0  0  0
 42 44  1  1  0  0  0
 42 54  1  0  0  0  0
 42 43  1  0  0  0  0
 44 46  1  1  0  0  0
 44 53  1  0  0  0  0
 44 45  1  0  0  0  0
 46 47  1  1  0  0  0
 46 48  1  0  0  0  0
 46 52  1  0  0  0  0
 48 49  1  0  0  0  0
 48 71  1  0  0  0  0
 48 72  1  0  0  0  0
 49 50  1  0  0  0  0
 49 40  1  6  0  0  0
 49 51  1  0  0  0  0
 51 73  1  0  0  0  0
 51 74  1  0  0  0  0
 52 75  1  0  0  0  0
 52 76  1  0  0  0  0
 53 77  1  0  0  0  0
 54 78  1  0  0  0  0
M  END
$$$$
