@<TRIPOS>MOLECULE
1YRJ_AM2_A_151
 78 81 0 0 0
SMALL
GASTEIGER

@<TRIPOS>ATOM
      1 C           1.2879    4.0860   -2.3166 C.3     1  UNL1        0.1752
      2 H           0.9340    4.9594   -2.8699 H       1  UNL1        0.0926
      3 C           0.5297    2.8406   -2.8855 C.3     1  UNL1        0.0590
      4 H           0.8051    2.7722   -3.9495 H       1  UNL1        0.0509
      5 C           1.0432    1.5750   -2.1918 C.3     1  UNL1       -0.0040
      6 C           2.5282    1.4647   -2.5034 C.3     1  UNL1        0.0920
      7 H           2.5913    1.2590   -3.5821 H       1  UNL1        0.0624
      8 C           3.2814    2.7464   -2.1265 C.3     1  UNL1        0.1153
      9 H           3.3988    2.8190   -1.0374 H       1  UNL1        0.0649
     10 C           4.6671    2.6227   -2.7792 C.3     1  UNL1        0.1038
     11 H           5.2880    3.4866   -2.5169 H       1  UNL1        0.0637
     12 C           5.3704    1.3080   -2.3292 C.3     1  UNL1        0.0877
     13 H           5.5905    1.4727   -1.2654 H       1  UNL1        0.0537
     14 C           4.4114    0.0522   -2.3280 C.3     1  UNL1        0.1803
     15 H           4.2945   -0.3460   -3.3439 H       1  UNL1        0.0928
     16 O           3.1197    0.3816   -1.7930 O.3     1  UNL1       -0.3436
     17 O           5.0274   -0.9575   -1.5029 O.3     1  UNL1       -0.3184
     18 C           4.1853   -2.0987   -1.2914 C.3     1  UNL1        0.1908
     19 H           3.2017   -1.7719   -0.9425 H       1  UNL1        0.0938
     20 C           4.8301   -2.9722   -0.1821 C.3     1  UNL1        0.1332
     21 H           4.8552   -2.4004    0.7541 H       1  UNL1        0.0671
     22 C           4.0358   -4.2748    0.0073 C.3     1  UNL1        0.1033
     23 H           4.5851   -4.9461    0.6825 H       1  UNL1        0.0637
     24 C           3.8027   -5.0029   -1.3455 C.3     1  UNL1        0.0626
     25 H           3.0841   -5.8155   -1.1936 H       1  UNL1        0.0511
     26 C           3.2224   -4.0107   -2.3885 C.3     1  UNL1        0.1023
     27 H           3.2631   -4.4793   -3.3805 H       1  UNL1        0.0636
     28 C           1.7386   -3.6582   -2.1356 C.3     1  UNL1        0.0720
     29 O           1.2530   -2.7208   -3.1047 O.3     1  UNL1       -0.3924
     30 O           4.0750   -2.8483   -2.5024 O.3     1  UNL1       -0.3415
     31 N           5.0423   -5.6095   -1.8837 N.3     1  UNL1       -0.3230
     32 O           2.7670   -4.0335    0.6249 O.3     1  UNL1       -0.3874
     33 O           6.1946   -3.3077   -0.4904 O.3     1  UNL1       -0.3841
     34 N           6.7182    1.0634   -2.9165 N.3     1  UNL1       -0.3099
     35 C           6.8048    1.1716   -4.3661 C.3     1  UNL1       -0.0153
     36 O           4.4634    2.6919   -4.2046 O.3     1  UNL1       -0.3874
     37 O           2.6815    3.9560   -2.6099 O.3     1  UNL1       -0.3413
     38 N          -0.9396    2.9262   -2.8428 N.3     1  UNL1       -0.3231
     39 O           1.0043    4.2888   -0.9188 O.3     1  UNL1       -0.3423
     40 C           1.7066    5.3865   -0.2979 C.3     1  UNL1        0.1051
     41 H           2.7798    5.2469   -0.4842 H       1  UNL1        0.0639
     42 C           1.2856    6.7862   -0.8075 C.3     1  UNL1        0.1101
     43 H           1.3909    6.8258   -1.8938 H       1  UNL1        0.0646
     44 C          -0.1798    7.1205   -0.4524 C.3     1  UNL1        0.0986
     45 H          -0.3668    8.1623   -0.7348 H       1  UNL1        0.0635
     46 C          -0.4968    6.9818    1.0642 C.3     1  UNL1        0.0351
     47 H          -1.5887    6.9124    1.1776 H       1  UNL1        0.0485
     48 C           0.0803    5.6909    1.6810 C.3     1  UNL1       -0.0175
     49 C           1.5087    5.3110    1.2505 C.3     1  UNL1        0.0355
     50 H           1.6749    4.2714    1.5618 H       1  UNL1        0.0485
     51 N           2.5024    6.1411    1.9613 N.3     1  UNL1       -0.3250
     52 N          -0.0801    8.1668    1.8414 N.3     1  UNL1       -0.3250
     53 O          -1.1224    6.3556   -1.2069 O.3     1  UNL1       -0.3876
     54 O           2.1540    7.8077   -0.2830 O.3     1  UNL1       -0.3866
     55 H           0.5267    0.6781   -2.5592 H       1  UNL1        0.0308
     56 H           0.8700    1.6020   -1.1080 H       1  UNL1        0.0308
     57 H           1.1221   -4.5627   -2.1927 H       1  UNL1        0.0583
     58 H           1.5628   -3.1963   -1.1663 H       1  UNL1        0.0583
     59 H           1.5456   -3.0233   -3.9789 H       1  UNL1        0.2095
     60 H           5.7130   -5.7602   -1.1219 H       1  UNL1        0.1186
     61 H           5.4939   -4.9490   -2.5145 H       1  UNL1        0.1186
     62 H           2.8704   -3.3526    1.3138 H       1  UNL1        0.2100
     63 H           6.3254   -3.0739   -1.4293 H       1  UNL1        0.2101
     64 H           7.0073    0.1210   -2.6380 H       1  UNL1        0.1221
     65 H           6.6845    2.2016   -4.7098 H       1  UNL1        0.0388
     66 H           6.0855    0.5213   -4.8796 H       1  UNL1        0.0388
     67 H           7.8065    0.8740   -4.6906 H       1  UNL1        0.0388
     68 H           4.0457    3.5653   -4.3590 H       1  UNL1        0.2100
     69 H          -1.2735    2.5781   -1.9392 H       1  UNL1        0.1186
     70 H          -1.3058    2.2492   -3.5230 H       1  UNL1        0.1186
     71 H          -0.5856    4.8592    1.4254 H       1  UNL1        0.0297
     72 H           0.0337    5.7599    2.7805 H       1  UNL1        0.0297
     73 H           2.8750    5.5865    2.7412 H       1  UNL1        0.1185
     74 H           2.0220    6.9013    2.4580 H       1  UNL1        0.1185
     75 H          -0.6048    8.9719    1.4721 H       1  UNL1        0.1185
     76 H           0.8896    8.3957    1.6215 H       1  UNL1        0.1185
     77 H          -0.7144    5.5224   -1.5002 H       1  UNL1        0.2100
     78 H           2.6757    7.4043    0.4480 H       1  UNL1        0.2100
@<TRIPOS>BOND
     1     1     2    1
     2     1     3    1
     3     1    37    1
     4     1    39    1
     5     3     5    1
     6     3    38    1
     7     3     4    1
     8     5     6    1
     9     5    55    1
    10     5    56    1
    11     6     7    1
    12     6     8    1
    13     6    16    1
    14     8     9    1
    15     8    10    1
    16     8    37    1
    17    10    11    1
    18    10    12    1
    19    10    36    1
    20    12    13    1
    21    12    14    1
    22    12    34    1
    23    14    16    1
    24    14    17    1
    25    14    15    1
    26    18    20    1
    27    18    30    1
    28    18    19    1
    29    18    17    1
    30    20    22    1
    31    20    33    1
    32    20    21    1
    33    22    24    1
    34    22    32    1
    35    22    23    1
    36    24    25    1
    37    24    26    1
    38    24    31    1
    39    26    30    1
    40    26    28    1
    41    26    27    1
    42    28    29    1
    43    28    57    1
    44    28    58    1
    45    29    59    1
    46    31    60    1
    47    31    61    1
    48    32    62    1
    49    33    63    1
    50    34    35    1
    51    34    64    1
    52    35    65    1
    53    35    66    1
    54    35    67    1
    55    36    68    1
    56    38    69    1
    57    38    70    1
    58    39    40    1
    59    40    41    1
    60    40    42    1
    61    42    44    1
    62    42    54    1
    63    42    43    1
    64    44    46    1
    65    44    53    1
    66    44    45    1
    67    46    47    1
    68    46    48    1
    69    46    52    1
    70    48    49    1
    71    48    71    1
    72    48    72    1
    73    49    50    1
    74    49    40    1
    75    49    51    1
    76    51    73    1
    77    51    74    1
    78    52    75    1
    79    52    76    1
    80    53    77    1
    81    54    78    1
