REMARK  16 active torsions:
REMARK  status: ('A' for Active; 'I' for Inactive)
REMARK    1  A    between atoms: C_1  and  O_27 
REMARK    2  A    between atoms: C_2  and  N_26 
REMARK    3  A    between atoms: C_6  and  O_24 
REMARK    4  A    between atoms: C_7  and  N_22 
REMARK    5  A    between atoms: C_8  and  O_10 
REMARK    6  A    between atoms: C_11  and  O_10 
REMARK    7  A    between atoms: C_12  and  O_21 
REMARK    8  A    between atoms: C_13  and  O_20 
REMARK    9  A    between atoms: C_14  and  N_19 
REMARK   10  A    between atoms: C_15  and  C_16 
REMARK   11  A    between atoms: C_16  and  O_17 
REMARK   12  A    between atoms: O_27  and  C_28 
REMARK   13  A    between atoms: C_29  and  O_37 
REMARK   14  A    between atoms: C_30  and  O_36 
REMARK   15  A    between atoms: C_31  and  N_35 
REMARK   16  A    between atoms: C_33  and  N_34 
ROOT
ATOM      1  C   UNL d   1       1.288   4.086  -2.317  0.00  0.00     0.293 C 
ATOM      2  C   UNL d   1       0.530   2.841  -2.885  0.00  0.00     0.275 C 
ATOM      3  C   UNL d   1       1.043   1.575  -2.192  0.00  0.00     0.075 C 
ATOM      4  C   UNL d   1       2.528   1.465  -2.503  0.00  0.00     0.158 C 
ATOM      5  C   UNL d   1       3.281   2.746  -2.127  0.00  0.00     0.184 C 
ATOM      6  C   UNL d   1       4.667   2.623  -2.779  0.00  0.00     0.187 C 
ATOM      7  C   UNL d   1       5.370   1.308  -2.329  0.00  0.00     0.305 C 
ATOM      8  C   UNL d   1       4.411   0.052  -2.328  0.00  0.00     0.299 C 
ATOM      9  O   UNL d   1       3.120   0.382  -1.793  0.00  0.00    -0.351 OA
ATOM     10  O   UNL d   1       2.682   3.956  -2.610  0.00  0.00    -0.349 OA
ENDROOT
BRANCH   1  11
ATOM     11  O   UNL d   1       1.004   4.289  -0.919  0.00  0.00    -0.349 OA
BRANCH  11  12
ATOM     12  C   UNL d   1       1.707   5.386  -0.298  0.00  0.00     0.189 C 
ATOM     13  C   UNL d   1       1.286   6.786  -0.807  0.00  0.00     0.180 C 
ATOM     14  C   UNL d   1      -0.180   7.120  -0.452  0.00  0.00     0.182 C 
ATOM     15  C   UNL d   1      -0.497   6.982   1.064  0.00  0.00     0.251 C 
ATOM     16  C   UNL d   1       0.080   5.691   1.681  0.00  0.00     0.076 C 
ATOM     17  C   UNL d   1       1.509   5.311   1.250  0.00  0.00     0.251 C 
BRANCH  13  18
ATOM     18  O   UNL d   1       2.154   7.808  -0.283  0.00  0.00    -0.390 OA
ATOM     19  H   UNL d   1       2.676   7.404   0.448  0.00  0.00     0.210 HD
ENDBRANCH  13  18
BRANCH  14  20
ATOM     20  O   UNL d   1      -1.122   6.356  -1.207  0.00  0.00    -0.391 OA
ATOM     21  H   UNL d   1      -0.714   5.522  -1.500  0.00  0.00     0.210 HD
ENDBRANCH  14  20
BRANCH  15  22
ATOM     22  N   UNL d   1      -0.080   8.167   1.841  0.00  0.00     0.085 N 
ATOM     23  H   UNL d   1      -0.605   8.972   1.472  0.00  0.00     0.313 HD
ATOM     24  H   UNL d   1       0.890   8.396   1.621  0.00  0.00     0.313 HD
ENDBRANCH  15  22
BRANCH  17  25
ATOM     25  N   UNL d   1       2.502   6.141   1.961  0.00  0.00     0.085 N 
ATOM     26  H   UNL d   1       2.875   5.587   2.741  0.00  0.00     0.313 HD
ATOM     27  H   UNL d   1       2.022   6.901   2.458  0.00  0.00     0.313 HD
ENDBRANCH  17  25
ENDBRANCH  11  12
ENDBRANCH   1  11
BRANCH   2  28
ATOM     28  N   UNL d   1      -0.940   2.926  -2.843  0.00  0.00     0.087 N 
ATOM     29  H   UNL d   1      -1.274   2.578  -1.939  0.00  0.00     0.313 HD
ATOM     30  H   UNL d   1      -1.306   2.249  -3.523  0.00  0.00     0.313 HD
ENDBRANCH   2  28
BRANCH   6  31
ATOM     31  O   UNL d   1       4.463   2.692  -4.205  0.00  0.00    -0.391 OA
ATOM     32  H   UNL d   1       4.046   3.565  -4.359  0.00  0.00     0.210 HD
ENDBRANCH   6  31
BRANCH   7  33
ATOM     33  N   UNL d   1       6.718   1.063  -2.917  0.00  0.00     0.091 N 
ATOM     34  C   UNL d   1       6.805   1.172  -4.366  0.00  0.00     0.307 C 
ATOM     35  H   UNL d   1       7.007   0.121  -2.638  0.00  0.00     0.316 HD
ENDBRANCH   7  33
BRANCH   8  36
ATOM     36  O   UNL d   1       5.027  -0.958  -1.503  0.00  0.00    -0.327 OA
BRANCH  36  37
ATOM     37  C   UNL d   1       4.185  -2.099  -1.291  0.00  0.00     0.294 C 
ATOM     38  C   UNL d   1       4.830  -2.972  -0.182  0.00  0.00     0.204 C 
ATOM     39  C   UNL d   1       4.036  -4.275   0.007  0.00  0.00     0.187 C 
ATOM     40  C   UNL d   1       3.803  -5.003  -1.345  0.00  0.00     0.279 C 
ATOM     41  C   UNL d   1       3.222  -4.011  -2.389  0.00  0.00     0.183 C 
ATOM     42  O   UNL d   1       4.075  -2.848  -2.502  0.00  0.00    -0.349 OA
BRANCH  38  43
ATOM     43  O   UNL d   1       6.195  -3.308  -0.490  0.00  0.00    -0.388 OA
ATOM     44  H   UNL d   1       6.325  -3.074  -1.429  0.00  0.00     0.210 HD
ENDBRANCH  38  43
BRANCH  39  45
ATOM     45  O   UNL d   1       2.767  -4.034   0.625  0.00  0.00    -0.391 OA
ATOM     46  H   UNL d   1       2.870  -3.353   1.314  0.00  0.00     0.210 HD
ENDBRANCH  39  45
BRANCH  40  47
ATOM     47  N   UNL d   1       5.042  -5.609  -1.884  0.00  0.00     0.088 N 
ATOM     48  H   UNL d   1       5.713  -5.760  -1.122  0.00  0.00     0.313 HD
ATOM     49  H   UNL d   1       5.494  -4.949  -2.514  0.00  0.00     0.313 HD
ENDBRANCH  40  47
BRANCH  41  50
ATOM     50  C   UNL d   1       1.739  -3.658  -2.136  0.00  0.00     0.198 C 
BRANCH  50  51
ATOM     51  O   UNL d   1       1.253  -2.721  -3.105  0.00  0.00    -0.398 OA
ATOM     52  H   UNL d   1       1.546  -3.023  -3.979  0.00  0.00     0.209 HD
ENDBRANCH  50  51
ENDBRANCH  41  50
ENDBRANCH  36  37
ENDBRANCH   8  36
TORSDOF 16
