@<TRIPOS>MOLECULE
*****
 26 25 0 0 0
SMALL
GASTEIGER

@<TRIPOS>ATOM
      1 N          -2.0923    0.8210    0.6040 N.3     1  ARG1       -0.3215
      2 CA         -1.9335    0.5255   -0.8153 C.3     1  ARG1        0.0610
      3 HA         -1.1787   -0.2595   -0.9339 H       1  ARG1        0.0534
      4 C          -1.3768    1.7763   -1.4562 C.2     1  ARG1        0.1369
      5 O          -0.1907    1.9177   -1.7380 O.2     1  ARG1       -0.2994
      6 CB         -3.2531    0.1241   -1.4877 C.3     1  ARG1       -0.0283
      7 CG         -3.4406   -1.3971   -1.5191 C.3     1  ARG1       -0.0204
      8 CD         -4.3719   -1.8173   -2.6504 C.3     1  ARG1        0.0646
      9 NE         -4.7808   -3.2189   -2.4824 N.pl3   1  ARG1       -0.2787
     10 CZ         -6.1225   -3.5753   -2.4041 C.cat   1  ARG1        0.3410
     11 NH1        -6.9767   -2.9228   -1.5277 N.pl3   1  ARG1       -0.2919
     12 HH11       -7.9611   -3.1718   -1.4702 H       1  ARG1        0.2545
     13 HH12       -6.6478   -2.1727   -0.9261 H       1  ARG1        0.2545
     14 NH2        -6.6032   -4.6087   -3.1919 N.pl3   1  ARG1       -0.2919
     15 H1         -2.4142    1.7785    0.7404 H       1  ARG1        0.1188
     16 H2         -2.8009    0.2146    1.0147 H       1  ARG1        0.1188
     17 H          -2.1054    2.5792   -1.6675 H       1  ARG1        0.1043
     18 HB1        -3.2794    0.5116   -2.5149 H       1  ARG1        0.0285
     19 HB2        -4.1095    0.5752   -0.9679 H       1  ARG1        0.0285
     20 HG1        -2.4785   -1.9010   -1.6607 H       1  ARG1        0.0296
     21 HG2        -3.8425   -1.7344   -0.5564 H       1  ARG1        0.0296
     22 HD1        -3.8618   -1.7428   -3.6164 H       1  ARG1        0.0655
     23 HD2        -5.2594   -1.1773   -2.6889 H       1  ARG1        0.0655
     24 HE         -4.0820   -3.9581   -2.4486 H       1  ARG1        0.2578
     25 HH21       -5.9744   -5.1866   -3.7429 H       1  ARG1        0.2545
     26 HH22       -7.5960   -4.8285   -3.2204 H       1  ARG1        0.2545
@<TRIPOS>BOND
     1     2     1    1
     2     2     3    1
     3     4     2    1
     4     5     4    2
     5     6     2    1
     6     7     6    1
     7     8     7    1
     8     9     8    1
     9    10     9    1
    10    11    10    2
    11    11    12    1
    12    11    13    1
    13    14    10    1
    14     1    15    1
    15     1    16    1
    16     4    17    1
    17     6    18    1
    18     6    19    1
    19     7    20    1
    20     7    21    1
    21     8    22    1
    22     8    23    1
    23     9    24    1
    24    14    25    1
    25    14    26    1
