REMARK  6 active torsions:
REMARK  status: ('A' for Active; 'I' for Inactive)
REMARK    1  A    between atoms: CA_2  and  N_1 
REMARK    2  A    between atoms: C_3  and  CA_2 
REMARK    3  A    between atoms: CB_5  and  CA_2 
REMARK    4  A    between atoms: CG_6  and  CB_5 
REMARK    5  A    between atoms: CD_7  and  CG_6 
REMARK    6  A    between atoms: NE_8  and  CD_7 
REMARK       I    between atoms: CZ_9  and  NE_8 
REMARK       I    between atoms: NH1_10  and  CZ_9 
REMARK       I    between atoms: NH2_13  and  CZ_9 
ROOT
ATOM      1  CD  ARG d   1      -4.372  -1.817  -2.650  0.00  0.00     0.138 C 
ENDROOT
BRANCH   1   2
ATOM      2  CG  ARG d   1      -3.441  -1.397  -1.519  0.00  0.00     0.023 C 
BRANCH   2   3
ATOM      3  CB  ARG d   1      -3.253   0.124  -1.488  0.00  0.00     0.044 C 
BRANCH   3   4
ATOM      4  CA  ARG d   1      -1.933   0.525  -0.815  0.00  0.00     0.278 C 
BRANCH   4   5
ATOM      5  N   ARG d   1      -2.092   0.821   0.604  0.00  0.00     0.089 N 
ATOM      6  H1  ARG d   1      -2.414   1.778   0.740  0.00  0.00     0.313 HD
ATOM      7  H2  ARG d   1      -2.801   0.215   1.015  0.00  0.00     0.313 HD
ENDBRANCH   4   5
BRANCH   4   8
ATOM      8  C   ARG d   1      -1.377   1.776  -1.456  0.00  0.00     0.266 C 
ATOM      9  O   ARG d   1      -0.191   1.918  -1.738  0.00  0.00    -0.305 OA
ENDBRANCH   4   8
ENDBRANCH   3   4
ENDBRANCH   2   3
ENDBRANCH   1   2
BRANCH   1  10
ATOM     10  NE  ARG d   1      -4.781  -3.219  -2.482  0.00  0.00    -0.227 N 
ATOM     11  CZ  ARG d   1      -6.122  -3.575  -2.404  0.00  0.00     0.665 C 
ATOM     12  NH1 ARG d   1      -6.977  -2.923  -1.528  0.00  0.00    -0.235 N 
ATOM     13  NH2 ARG d   1      -6.603  -4.609  -3.192  0.00  0.00    -0.235 N 
ATOM     14 1HH1 ARG d   1      -7.961  -3.172  -1.470  0.00  0.00     0.174 HD
ATOM     15 2HH1 ARG d   1      -6.648  -2.173  -0.926  0.00  0.00     0.174 HD
ATOM     16 1HH2 ARG d   1      -5.974  -5.187  -3.743  0.00  0.00     0.174 HD
ATOM     17 2HH2 ARG d   1      -7.596  -4.829  -3.220  0.00  0.00     0.174 HD
ATOM     18  HE  ARG d   1      -4.082  -3.958  -2.449  0.00  0.00     0.177 HD
ENDBRANCH   1  10
TORSDOF 6
