
  1228              3D

 26 25  0  0  0  0  0  0  0  0999 V2000
   -2.0923    0.8210    0.6040 N   0  0  0  0  0  0  0  0  0  0  0  0
   -1.9335    0.5255   -0.8153 C   0  0  0  0  0  0  0  0  0  0  0  0
   -1.1787   -0.2595   -0.9339 H   0  0  0  0  0  0  0  0  0  0  0  0
   -1.3768    1.7763   -1.4562 C   0  0  0  0  0  0  0  0  0  0  0  0
   -0.1907    1.9177   -1.7380 O   0  0  0  0  0  0  0  0  0  0  0  0
   -3.2531    0.1241   -1.4877 C   0  0  0  0  0  0  0  0  0  0  0  0
   -3.4406   -1.3971   -1.5191 C   0  0  0  0  0  0  0  0  0  0  0  0
   -4.3719   -1.8173   -2.6504 C   0  0  0  0  0  0  0  0  0  0  0  0
   -4.7808   -3.2189   -2.4824 N   0  0  0  0  0  0  0  0  0  0  0  0
   -6.1225   -3.5753   -2.4041 C   0  0  0  0  0  0  0  0  0  0  0  0
   -6.9767   -2.9228   -1.5277 N   0  3  0  0  0  0  0  0  0  0  0  0
   -7.9611   -3.1718   -1.4702 H   0  0  0  0  0  0  0  0  0  0  0  0
   -6.6478   -2.1727   -0.9261 H   0  0  0  0  0  0  0  0  0  0  0  0
   -6.6032   -4.6087   -3.1919 N   0  0  0  0  0  0  0  0  0  0  0  0
   -2.4142    1.7785    0.7404 H   0  0  0  0  0  0  0  0  0  0  0  0
   -2.8009    0.2146    1.0147 H   0  0  0  0  0  0  0  0  0  0  0  0
   -2.1054    2.5792   -1.6675 H   0  0  0  0  0  0  0  0  0  0  0  0
   -3.2794    0.5116   -2.5149 H   0  0  0  0  0  0  0  0  0  0  0  0
   -4.1095    0.5752   -0.9679 H   0  0  0  0  0  0  0  0  0  0  0  0
   -2.4785   -1.9010   -1.6607 H   0  0  0  0  0  0  0  0  0  0  0  0
   -3.8425   -1.7344   -0.5564 H   0  0  0  0  0  0  0  0  0  0  0  0
   -3.8618   -1.7428   -3.6164 H   0  0  0  0  0  0  0  0  0  0  0  0
   -5.2594   -1.1773   -2.6889 H   0  0  0  0  0  0  0  0  0  0  0  0
   -4.0820   -3.9581   -2.4486 H   0  0  0  0  0  0  0  0  0  0  0  0
   -5.9744   -5.1866   -3.7429 H   0  0  0  0  0  0  0  0  0  0  0  0
   -7.5960   -4.8285   -3.2204 H   0  0  0  0  0  0  0  0  0  0  0  0
  2  1  1  0  0  0  0
  2  3  1  0  0  0  0
  4  2  1  0  0  0  0
  5  4  2  0  0  0  0
  6  2  1  0  0  0  0
  7  6  1  0  0  0  0
  8  7  1  0  0  0  0
  9  8  1  0  0  0  0
 10  9  1  0  0  0  0
 11 10  2  0  0  0  0
 11 12  1  0  0  0  0
 11 13  1  0  0  0  0
 14 10  1  0  0  0  0
  1 15  1  0  0  0  0
  1 16  1  0  0  0  0
  4 17  1  0  0  0  0
  6 18  1  0  0  0  0
  6 19  1  0  0  0  0
  7 20  1  0  0  0  0
  7 21  1  0  0  0  0
  8 22  1  0  0  0  0
  8 23  1  0  0  0  0
  9 24  1  0  0  0  0
 14 25  1  0  0  0  0
 14 26  1  0  0  0  0
M  CHG  1  11   1
M  END
>  <energy>
22.599815640171929

$$$$
