@<TRIPOS>MOLECULE
3Q50_PRF_A_34
 22 23 0 0 0
SMALL
GASTEIGER

@<TRIPOS>ATOM
      1 N           2.1533   -0.5955   -0.1156 N.ar    1  UNL1       -0.2947
      2 H           3.0518   -1.0337   -0.2204 H       1  UNL1        0.1716
      3 C           2.0572    0.7790   -0.0935 C.ar    1  UNL1        0.1949
      4 N           0.9253    1.4237   -0.0315 N.ar    1  UNL1       -0.1982
      5 C          -0.1579    0.6127    0.0028 C.ar    1  UNL1        0.1472
      6 C          -0.1995   -0.7620   -0.0443 C.ar    1  UNL1        0.0874
      7 C           1.0672   -1.4516   -0.1488 C.ar    1  UNL1        0.2622
      8 O           1.1965   -2.6649   -0.2886 O.2     1  UNL1       -0.2670
      9 C          -1.5668   -1.1720    0.0103 C.ar    1  UNL1       -0.0020
     10 C          -2.1530   -2.5460   -0.0494 C.3     1  UNL1        0.0208
     11 N          -1.3409   -3.4990    0.6896 N.3     1  UNL1       -0.3260
     12 C          -2.3012    0.0075    0.0732 C.ar    1  UNL1        0.0087
     13 N          -1.4369    1.0744    0.0727 N.ar    1  UNL1       -0.3453
     14 H          -1.6900    2.0519    0.0997 H       1  UNL1        0.1668
     15 N           3.2269    1.4644   -0.1370 N.pl3   1  UNL1       -0.3289
     16 H          -2.2522   -2.8575   -1.0945 H       1  UNL1        0.0472
     17 H          -3.1561   -2.5383    0.3923 H       1  UNL1        0.0472
     18 H          -0.3965   -3.5045    0.2852 H       1  UNL1        0.1185
     19 H          -1.6997   -4.4354    0.5166 H       1  UNL1        0.1185
     20 H          -3.3700    0.1732    0.1079 H       1  UNL1        0.0811
     21 H           4.0190    1.0494    0.3340 H       1  UNL1        0.1451
     22 H           3.0986    2.4445    0.0952 H       1  UNL1        0.1451
@<TRIPOS>BOND
     1     1     2    1
     2     1     3   ar
     3     1     7   ar
     4     3     4   ar
     5     3    15    1
     6     4     5   ar
     7     5     6   ar
     8     5    13   ar
     9     6     7   ar
    10     6     9   ar
    11     7     8    2
    12     9    10    1
    13     9    12   ar
    14    10    11    1
    15    10    16    1
    16    10    17    1
    17    11    18    1
    18    11    19    1
    19    12    13   ar
    20    12    20    1
    21    13    14    1
    22    15    21    1
    23    15    22    1
