REMARK  22 active torsions:
REMARK  status: ('A' for Active; 'I' for Inactive)
REMARK    1  A    between atoms: C_1  and  O_12 
REMARK    2  A    between atoms: C_2  and  O_11 
REMARK    3  A    between atoms: C_3  and  O_10 
REMARK    4  A    between atoms: C_4  and  O_9 
REMARK    5  A    between atoms: C_5  and  C_6 
REMARK    6  A    between atoms: C_6  and  N_7 
REMARK    7  A    between atoms: C_13  and  O_12 
REMARK    8  A    between atoms: C_14  and  N_40 
REMARK    9  A    between atoms: C_16  and  N_17 
REMARK       I    between atoms: N_17  and  C_18 
REMARK   10  A    between atoms: C_20  and  C_18 
REMARK   11  A    between atoms: C_20  and  C_21 
REMARK   12  A    between atoms: C_20  and  O_24 
REMARK   13  A    between atoms: C_21  and  C_22 
REMARK   14  A    between atoms: C_22  and  N_23 
REMARK   15  A    between atoms: C_25  and  O_28 
REMARK   16  A    between atoms: C_26  and  O_27 
REMARK   17  A    between atoms: C_29  and  O_28 
REMARK   18  A    between atoms: C_30  and  O_31 
REMARK   19  A    between atoms: C_32  and  N_33 
REMARK   20  A    between atoms: C_34  and  O_35 
REMARK   21  A    between atoms: C_36  and  C_38 
REMARK   22  A    between atoms: C_38  and  O_39 
ROOT
ATOM      1  C   UNL d   1      13.991   0.123   0.323  0.00  0.00     0.189 C 
ATOM      2  C   UNL d   1      13.871   1.591   0.830  0.00  0.00     0.251 C 
ATOM      3  C   UNL d   1      12.448   2.079   0.525  0.00  0.00     0.066 C 
ATOM      4  C   UNL d   1      11.380   1.281   1.289  0.00  0.00     0.118 C 
ATOM      5  C   UNL d   1      11.625  -0.255   1.230  0.00  0.00     0.178 C 
ATOM      6  C   UNL d   1      13.103  -0.726   1.276  0.00  0.00     0.180 C 
ENDROOT
BRANCH   1   7
ATOM      7  O   UNL d   1      15.378  -0.272   0.282  0.00  0.00    -0.348 OA
BRANCH   7   8
ATOM      8  C   UNL d   1      15.640  -1.541  -0.354  0.00  0.00     0.292 C 
ATOM      9  C   UNL d   1      17.169  -1.724  -0.548  0.00  0.00     0.204 C 
ATOM     10  C   UNL d   1      17.461  -3.081  -1.222  0.00  0.00     0.183 C 
ATOM     11  C   UNL d   1      16.658  -3.211  -2.526  0.00  0.00     0.180 C 
ATOM     12  C   UNL d   1      15.157  -2.938  -2.287  0.00  0.00     0.183 C 
ATOM     13  O   UNL d   1      14.953  -1.675  -1.606  0.00  0.00    -0.349 OA
BRANCH   9  14
ATOM     14  O   UNL d   1      17.734  -0.674  -1.352  0.00  0.00    -0.388 OA
ATOM     15  H   UNL d   1      17.251  -0.689  -2.206  0.00  0.00     0.210 HD
ENDBRANCH   9  14
BRANCH  10  16
ATOM     16  O   UNL d   1      17.186  -4.214  -0.396  0.00  0.00    -0.390 OA
ATOM     17  H   UNL d   1      16.964  -3.930   0.507  0.00  0.00     0.210 HD
ENDBRANCH  10  16
BRANCH  11  18
ATOM     18  O   UNL d   1      17.140  -2.253  -3.487  0.00  0.00    -0.390 OA
ATOM     19  H   UNL d   1      18.074  -2.467  -3.670  0.00  0.00     0.210 HD
ENDBRANCH  11  18
BRANCH  12  20
ATOM     20  C   UNL d   1      14.381  -4.086  -1.589  0.00  0.00     0.301 C 
BRANCH  20  21
ATOM     21  N   UNL d   1      14.424  -5.386  -2.252  0.00  0.00     0.080 N 
ATOM     22  H   UNL d   1      15.361  -5.786  -2.198  0.00  0.00     0.312 HD
ATOM     23  H   UNL d   1      14.187  -5.300  -3.239  0.00  0.00     0.312 HD
ENDBRANCH  20  21
ENDBRANCH  12  20
ENDBRANCH   7   8
ENDBRANCH   1   7
BRANCH   2  24
ATOM     24  N   UNL d   1      14.842   2.531   0.272  0.00  0.00     0.085 N 
ATOM     25  H   UNL d   1      15.758   2.079   0.267  0.00  0.00     0.313 HD
ATOM     26  H   UNL d   1      14.623   2.756  -0.695  0.00  0.00     0.313 HD
ENDBRANCH   2  24
BRANCH   6  27
ATOM     27  O   UNL d   1      13.145  -2.121   0.926  0.00  0.00    -0.390 OA
ATOM     28  H   UNL d   1      12.808  -2.201   0.014  0.00  0.00     0.210 HD
ENDBRANCH   6  27
BRANCH   5  29
ATOM     29  O   UNL d   1      10.767  -1.004   2.110  0.00  0.00    -0.349 OA
BRANCH  29  30
ATOM     30  C   UNL d   1      10.912  -0.887   3.536  0.00  0.00     0.291 C 
ATOM     31  C   UNL d   1       9.928  -1.934   4.127  0.00  0.00     0.208 C 
ATOM     32  C   UNL d   1       9.830  -1.832   5.659  0.00  0.00     0.282 C 
ATOM     33  C   UNL d   1       9.464  -0.375   6.050  0.00  0.00     0.184 C 
ATOM     34  C   UNL d   1      10.387   0.657   5.378  0.00  0.00     0.179 C 
ATOM     35  O   UNL d   1      10.548   0.414   3.967  0.00  0.00    -0.349 OA
BRANCH  31  36
ATOM     36  O   UNL d   1       8.596  -1.746   3.596  0.00  0.00    -0.388 OA
ATOM     37  H   UNL d   1       8.559  -0.805   3.318  0.00  0.00     0.210 HD
ENDBRANCH  31  36
BRANCH  32  38
ATOM     38  N   UNL d   1      11.019  -2.348   6.360  0.00  0.00     0.088 N 
ATOM     39  H   UNL d   1      11.883  -2.007   5.941  0.00  0.00     0.313 HD
ATOM     40  H   UNL d   1      11.060  -3.362   6.237  0.00  0.00     0.313 HD
ENDBRANCH  32  38
BRANCH  33  41
ATOM     41  O   UNL d   1       8.112  -0.058   5.664  0.00  0.00    -0.391 OA
ATOM     42  H   UNL d   1       7.626  -0.889   5.508  0.00  0.00     0.210 HD
ENDBRANCH  33  41
BRANCH  34  43
ATOM     43  C   UNL d   1      11.698   0.850   6.162  0.00  0.00     0.198 C 
BRANCH  43  44
ATOM     44  O   UNL d   1      12.532   1.822   5.540  0.00  0.00    -0.398 OA
ATOM     45  H   UNL d   1      13.027   2.275   6.245  0.00  0.00     0.209 HD
ENDBRANCH  43  44
ENDBRANCH  34  43
ENDBRANCH  29  30
ENDBRANCH   5  29
BRANCH   4  46
ATOM     46  N   UNL d   1      10.056   1.609   0.752  0.00  0.00    -0.352 N 
ATOM     47  C   UNL d   1       9.467   2.850   0.857  0.00  0.00     0.246 C 
ATOM     48  O   UNL d   1       9.978   3.786   1.462  0.00  0.00    -0.271 OA
ATOM     49  H   UNL d   1       9.515   0.910   0.246  0.00  0.00     0.163 HD
BRANCH  47  50
ATOM     50  C   UNL d   1       8.150   2.981   0.071  0.00  0.00     0.211 C 
BRANCH  50  51
ATOM     51  C   UNL d   1       6.942   3.262   0.962  0.00  0.00     0.071 C 
BRANCH  51  52
ATOM     52  C   UNL d   1       7.062   4.466   1.896  0.00  0.00     0.269 C 
BRANCH  52  53
ATOM     53  N   UNL d   1       7.346   5.705   1.178  0.00  0.00     0.078 N 
ATOM     54  H   UNL d   1       8.329   5.691   0.890  0.00  0.00     0.312 HD
ATOM     55  H   UNL d   1       7.300   6.478   1.845  0.00  0.00     0.312 HD
ENDBRANCH  52  53
ENDBRANCH  51  52
ENDBRANCH  50  51
BRANCH  50  56
ATOM     56  O   UNL d   1       7.882   1.802  -0.706  0.00  0.00    -0.386 OA
ATOM     57  H   UNL d   1       7.461   2.111  -1.529  0.00  0.00     0.210 HD
ENDBRANCH  50  56
ENDBRANCH  47  50
ENDBRANCH   4  46
TORSDOF 22
