@<TRIPOS>MOLECULE
4P20_AKN_A_101
 83 85 0 0 0
SMALL
GASTEIGER

@<TRIPOS>ATOM
      1 C          15.6398   -1.5406   -0.3545 C.3     1  UNL1        0.1883
      2 H          15.3163   -2.3199    0.3357 H       1  UNL1        0.0938
      3 C          17.1688   -1.7243   -0.5479 C.3     1  UNL1        0.1341
      4 H          17.6621   -1.6708    0.4283 H       1  UNL1        0.0671
      5 C          17.4609   -3.0812   -1.2220 C.3     1  UNL1        0.1140
      6 H          18.5287   -3.1205   -1.4705 H       1  UNL1        0.0648
      7 C          16.6579   -3.2112   -2.5260 C.3     1  UNL1        0.1109
      8 H          16.7952   -4.2030   -2.9709 H       1  UNL1        0.0646
      9 C          15.1569   -2.9380   -2.2870 C.3     1  UNL1        0.1023
     10 H          14.6902   -2.7947   -3.2707 H       1  UNL1        0.0636
     11 C          14.3812   -4.0857   -1.5885 C.3     1  UNL1        0.0222
     12 N          14.4236   -5.3861   -2.2517 N.3     1  UNL1       -0.3276
     13 O          14.9530   -1.6751   -1.6056 O.3     1  UNL1       -0.3415
     14 O          17.1396   -2.2535   -3.4866 O.3     1  UNL1       -0.3865
     15 O          17.1864   -4.2136   -0.3960 O.3     1  UNL1       -0.3864
     16 O          17.7337   -0.6738   -1.3517 O.3     1  UNL1       -0.3841
     17 O          15.3778   -0.2719    0.2818 O.3     1  UNL1       -0.3413
     18 C          13.9905    0.1231    0.3227 C.3     1  UNL1        0.1052
     19 H          13.6047    0.0719   -0.7042 H       1  UNL1        0.0639
     20 C          13.8715    1.5907    0.8298 C.3     1  UNL1        0.0358
     21 H          14.0285    1.6032    1.9180 H       1  UNL1        0.0485
     22 C          12.4476    2.0788    0.5246 C.3     1  UNL1       -0.0142
     23 C          11.3799    1.2807    1.2888 C.3     1  UNL1        0.0535
     24 H          11.4110    1.6383    2.3113 H       1  UNL1        0.0525
     25 N          10.0560    1.6093    0.7521 N.am    1  UNL1       -0.3077
     26 C           9.4667    2.8504    0.8567 C.2     1  UNL1        0.2420
     27 O           9.9783    3.7860    1.4624 O.2     1  UNL1       -0.2730
     28 C           8.1497    2.9807    0.0708 C.3     1  UNL1        0.1320
     29 H           8.3083    3.7975   -0.6438 H       1  UNL1        0.0690
     30 C           6.9419    3.2616    0.9616 C.3     1  UNL1       -0.0059
     31 C           7.0620    4.4656    1.8963 C.3     1  UNL1       -0.0041
     32 N           7.3459    5.7055    1.1776 N.3     1  UNL1       -0.3299
     33 O           7.8819    1.8018   -0.7058 O.3     1  UNL1       -0.3825
     34 C          11.6246   -0.2554    1.2295 C.3     1  UNL1        0.1083
     35 H          11.2683   -0.5760    0.2374 H       1  UNL1        0.0642
     36 C          13.1027   -0.7255    1.2757 C.3     1  UNL1        0.1107
     37 H          13.5039   -0.6732    2.2918 H       1  UNL1        0.0646
     38 O          13.1447   -2.1214    0.9258 O.3     1  UNL1       -0.3865
     39 O          10.7668   -1.0044    2.1096 O.3     1  UNL1       -0.3410
     40 C          10.9118   -0.8869    3.5359 C.3     1  UNL1        0.1874
     41 H          11.9416   -1.1136    3.8327 H       1  UNL1        0.0937
     42 C           9.9282   -1.9344    4.1266 C.3     1  UNL1        0.1234
     43 H          10.2264   -2.9434    3.8206 H       1  UNL1        0.0660
     44 O           8.5963   -1.7456    3.5960 O.3     1  UNL1       -0.3851
     45 C           9.8298   -1.8319    5.6591 C.3     1  UNL1        0.0647
     46 H           8.9914   -2.4645    5.9802 H       1  UNL1        0.0512
     47 N          11.0193   -2.3476    6.3601 N.3     1  UNL1       -0.3229
     48 C           9.4645   -0.3751    6.0500 C.3     1  UNL1        0.1012
     49 H           9.4846   -0.2612    7.1397 H       1  UNL1        0.0636
     50 O           8.1121   -0.0577    5.6642 O.3     1  UNL1       -0.3875
     51 C          10.3875    0.6570    5.3775 C.3     1  UNL1        0.1120
     52 H           9.8833    1.6319    5.4023 H       1  UNL1        0.0646
     53 O          10.5478    0.4139    3.9666 O.3     1  UNL1       -0.3406
     54 C          11.6982    0.8501    6.1620 C.3     1  UNL1        0.0730
     55 O          12.5318    1.8218    5.5398 O.3     1  UNL1       -0.3924
     56 N          14.8419    2.5313    0.2715 N.3     1  UNL1       -0.3250
     57 H          14.7054   -4.2174   -0.5530 H       1  UNL1        0.0448
     58 H          13.3297   -3.7858   -1.5144 H       1  UNL1        0.0448
     59 H          15.3608   -5.7856   -2.1983 H       1  UNL1        0.1183
     60 H          14.1865   -5.3002   -3.2386 H       1  UNL1        0.1183
     61 H          18.0740   -2.4667   -3.6695 H       1  UNL1        0.2100
     62 H          16.9636   -3.9301    0.5075 H       1  UNL1        0.2100
     63 H          17.2512   -0.6885   -2.2060 H       1  UNL1        0.2101
     64 H          12.2591    2.0256   -0.5562 H       1  UNL1        0.0300
     65 H          12.3595    3.1456    0.7914 H       1  UNL1        0.0300
     66 H           9.5151    0.9103    0.2464 H       1  UNL1        0.1491
     67 H           6.7174    2.3715    1.5630 H       1  UNL1        0.0307
     68 H           6.0642    3.3986    0.3147 H       1  UNL1        0.0307
     69 H           7.8253    4.2962    2.6625 H       1  UNL1        0.0423
     70 H           6.1125    4.5856    2.4296 H       1  UNL1        0.0423
     71 H           8.3289    5.6910    0.8901 H       1  UNL1        0.1182
     72 H           7.2996    6.4784    1.8445 H       1  UNL1        0.1182
     73 H           7.4608    2.1108   -1.5291 H       1  UNL1        0.2104
     74 H          12.8080   -2.2008    0.0144 H       1  UNL1        0.2100
     75 H           8.5588   -0.8050    3.3178 H       1  UNL1        0.2101
     76 H          11.8828   -2.0073    5.9412 H       1  UNL1        0.1186
     77 H          11.0597   -3.3625    6.2369 H       1  UNL1        0.1186
     78 H           7.6263   -0.8887    5.5085 H       1  UNL1        0.2100
     79 H          11.4588    1.2029    7.1739 H       1  UNL1        0.0584
     80 H          12.2897   -0.0587    6.2553 H       1  UNL1        0.0584
     81 H          13.0273    2.2751    6.2446 H       1  UNL1        0.2095
     82 H          15.7583    2.0794    0.2673 H       1  UNL1        0.1185
     83 H          14.6234    2.7564   -0.6951 H       1  UNL1        0.1185
@<TRIPOS>BOND
     1     1     3    1
     2     1    13    1
     3     1    17    1
     4     1     2    1
     5     3     5    1
     6     3    16    1
     7     3     4    1
     8     5     7    1
     9     5    15    1
    10     5     6    1
    11     7     8    1
    12     7    14    1
    13     9     7    1
    14     9    13    1
    15     9    11    1
    16     9    10    1
    17    11    12    1
    18    11    57    1
    19    11    58    1
    20    12    59    1
    21    12    60    1
    22    14    61    1
    23    15    62    1
    24    16    63    1
    25    18    20    1
    26    18    36    1
    27    18    19    1
    28    18    17    1
    29    20    21    1
    30    20    22    1
    31    20    56    1
    32    22    23    1
    33    22    64    1
    34    22    65    1
    35    23    25    1
    36    23    24    1
    37    25    26   am
    38    25    66    1
    39    26    27    2
    40    28    30    1
    41    28    33    1
    42    28    29    1
    43    28    26    1
    44    30    31    1
    45    30    67    1
    46    30    68    1
    47    31    32    1
    48    31    69    1
    49    31    70    1
    50    32    71    1
    51    32    72    1
    52    33    73    1
    53    34    23    1
    54    34    35    1
    55    34    39    1
    56    36    34    1
    57    36    38    1
    58    36    37    1
    59    38    74    1
    60    40    42    1
    61    40    53    1
    62    40    41    1
    63    40    39    1
    64    42    45    1
    65    42    44    1
    66    42    43    1
    67    44    75    1
    68    45    48    1
    69    45    47    1
    70    45    46    1
    71    47    76    1
    72    47    77    1
    73    48    49    1
    74    48    50    1
    75    48    51    1
    76    50    78    1
    77    51    53    1
    78    51    54    1
    79    51    52    1
    80    54    55    1
    81    54    79    1
    82    54    80    1
    83    55    81    1
    84    56    82    1
    85    56    83    1
