4P20_AKN_A_101
 OpenBabel03221817313D

 83 85  0  0  1  0  0  0  0  0999 V2000
   15.6398   -1.5406   -0.3545 C   0  0  2  0  0  0  0  0  0  0  0  0
   15.3163   -2.3199    0.3357 H   0  0  0  0  0  0  0  0  0  0  0  0
   17.1688   -1.7243   -0.5479 C   0  0  1  0  0  0  0  0  0  0  0  0
   17.6621   -1.6708    0.4283 H   0  0  0  0  0  0  0  0  0  0  0  0
   17.4609   -3.0812   -1.2220 C   0  0  2  0  0  0  0  0  0  0  0  0
   18.5287   -3.1205   -1.4705 H   0  0  0  0  0  0  0  0  0  0  0  0
   16.6579   -3.2112   -2.5260 C   0  0  1  0  0  0  0  0  0  0  0  0
   16.7952   -4.2030   -2.9709 H   0  0  0  0  0  0  0  0  0  0  0  0
   15.1569   -2.9380   -2.2870 C   0  0  1  0  0  0  0  0  0  0  0  0
   14.6902   -2.7947   -3.2707 H   0  0  0  0  0  0  0  0  0  0  0  0
   14.3812   -4.0857   -1.5885 C   0  0  0  0  0  0  0  0  0  0  0  0
   14.4236   -5.3861   -2.2517 N   0  0  0  0  0  0  0  0  0  0  0  0
   14.9530   -1.6751   -1.6056 O   0  0  0  0  0  0  0  0  0  0  0  0
   17.1396   -2.2535   -3.4866 O   0  0  0  0  0  0  0  0  0  0  0  0
   17.1864   -4.2136   -0.3960 O   0  0  0  0  0  0  0  0  0  0  0  0
   17.7337   -0.6738   -1.3517 O   0  0  0  0  0  0  0  0  0  0  0  0
   15.3778   -0.2719    0.2818 O   0  0  0  0  0  0  0  0  0  0  0  0
   13.9905    0.1231    0.3227 C   0  0  2  0  0  0  0  0  0  0  0  0
   13.6047    0.0719   -0.7042 H   0  0  0  0  0  0  0  0  0  0  0  0
   13.8715    1.5907    0.8298 C   0  0  2  0  0  0  0  0  0  0  0  0
   14.0285    1.6032    1.9180 H   0  0  0  0  0  0  0  0  0  0  0  0
   12.4476    2.0788    0.5246 C   0  0  0  0  0  0  0  0  0  0  0  0
   11.3799    1.2807    1.2888 C   0  0  1  0  0  0  0  0  0  0  0  0
   11.4110    1.6383    2.3113 H   0  0  0  0  0  0  0  0  0  0  0  0
   10.0560    1.6093    0.7521 N   0  0  0  0  0  0  0  0  0  0  0  0
    9.4667    2.8504    0.8567 C   0  0  0  0  0  0  0  0  0  0  0  0
    9.9783    3.7860    1.4624 O   0  0  0  0  0  0  0  0  0  0  0  0
    8.1497    2.9807    0.0708 C   0  0  2  0  0  0  0  0  0  0  0  0
    8.3083    3.7975   -0.6438 H   0  0  0  0  0  0  0  0  0  0  0  0
    6.9419    3.2616    0.9616 C   0  0  0  0  0  0  0  0  0  0  0  0
    7.0620    4.4656    1.8963 C   0  0  0  0  0  0  0  0  0  0  0  0
    7.3459    5.7055    1.1776 N   0  0  0  0  0  0  0  0  0  0  0  0
    7.8819    1.8018   -0.7058 O   0  0  0  0  0  0  0  0  0  0  0  0
   11.6246   -0.2554    1.2295 C   0  0  1  0  0  0  0  0  0  0  0  0
   11.2683   -0.5760    0.2374 H   0  0  0  0  0  0  0  0  0  0  0  0
   13.1027   -0.7255    1.2757 C   0  0  1  0  0  0  0  0  0  0  0  0
   13.5039   -0.6732    2.2918 H   0  0  0  0  0  0  0  0  0  0  0  0
   13.1447   -2.1214    0.9258 O   0  0  0  0  0  0  0  0  0  0  0  0
   10.7668   -1.0044    2.1096 O   0  0  0  0  0  0  0  0  0  0  0  0
   10.9118   -0.8869    3.5359 C   0  0  2  0  0  0  0  0  0  0  0  0
   11.9416   -1.1136    3.8327 H   0  0  0  0  0  0  0  0  0  0  0  0
    9.9282   -1.9344    4.1266 C   0  0  2  0  0  0  0  0  0  0  0  0
   10.2264   -2.9434    3.8206 H   0  0  0  0  0  0  0  0  0  0  0  0
    8.5963   -1.7456    3.5960 O   0  0  0  0  0  0  0  0  0  0  0  0
    9.8298   -1.8319    5.6591 C   0  0  1  0  0  0  0  0  0  0  0  0
    8.9914   -2.4645    5.9802 H   0  0  0  0  0  0  0  0  0  0  0  0
   11.0193   -2.3476    6.3601 N   0  0  0  0  0  0  0  0  0  0  0  0
    9.4645   -0.3751    6.0500 C   0  0  2  0  0  0  0  0  0  0  0  0
    9.4846   -0.2612    7.1397 H   0  0  0  0  0  0  0  0  0  0  0  0
    8.1121   -0.0577    5.6642 O   0  0  0  0  0  0  0  0  0  0  0  0
   10.3875    0.6570    5.3775 C   0  0  2  0  0  0  0  0  0  0  0  0
    9.8833    1.6319    5.4023 H   0  0  0  0  0  0  0  0  0  0  0  0
   10.5478    0.4139    3.9666 O   0  0  0  0  0  0  0  0  0  0  0  0
   11.6982    0.8501    6.1620 C   0  0  0  0  0  0  0  0  0  0  0  0
   12.5318    1.8218    5.5398 O   0  0  0  0  0  0  0  0  0  0  0  0
   14.8419    2.5313    0.2715 N   0  0  0  0  0  0  0  0  0  0  0  0
   14.7054   -4.2174   -0.5530 H   0  0  0  0  0  0  0  0  0  0  0  0
   13.3297   -3.7858   -1.5144 H   0  0  0  0  0  0  0  0  0  0  0  0
   15.3608   -5.7856   -2.1983 H   0  0  0  0  0  0  0  0  0  0  0  0
   14.1865   -5.3002   -3.2386 H   0  0  0  0  0  0  0  0  0  0  0  0
   18.0740   -2.4667   -3.6695 H   0  0  0  0  0  0  0  0  0  0  0  0
   16.9636   -3.9301    0.5075 H   0  0  0  0  0  0  0  0  0  0  0  0
   17.2512   -0.6885   -2.2060 H   0  0  0  0  0  0  0  0  0  0  0  0
   12.2591    2.0256   -0.5562 H   0  0  0  0  0  0  0  0  0  0  0  0
   12.3595    3.1456    0.7914 H   0  0  0  0  0  0  0  0  0  0  0  0
    9.5151    0.9103    0.2464 H   0  0  0  0  0  0  0  0  0  0  0  0
    6.7174    2.3715    1.5630 H   0  0  0  0  0  0  0  0  0  0  0  0
    6.0642    3.3986    0.3147 H   0  0  0  0  0  0  0  0  0  0  0  0
    7.8253    4.2962    2.6625 H   0  0  0  0  0  0  0  0  0  0  0  0
    6.1125    4.5856    2.4296 H   0  0  0  0  0  0  0  0  0  0  0  0
    8.3289    5.6910    0.8901 H   0  0  0  0  0  0  0  0  0  0  0  0
    7.2996    6.4784    1.8445 H   0  0  0  0  0  0  0  0  0  0  0  0
    7.4608    2.1108   -1.5291 H   0  0  0  0  0  0  0  0  0  0  0  0
   12.8080   -2.2008    0.0144 H   0  0  0  0  0  0  0  0  0  0  0  0
    8.5588   -0.8050    3.3178 H   0  0  0  0  0  0  0  0  0  0  0  0
   11.8828   -2.0073    5.9412 H   0  0  0  0  0  0  0  0  0  0  0  0
   11.0597   -3.3625    6.2369 H   0  0  0  0  0  0  0  0  0  0  0  0
    7.6263   -0.8887    5.5085 H   0  0  0  0  0  0  0  0  0  0  0  0
   11.4588    1.2029    7.1739 H   0  0  0  0  0  0  0  0  0  0  0  0
   12.2897   -0.0587    6.2553 H   0  0  0  0  0  0  0  0  0  0  0  0
   13.0273    2.2751    6.2446 H   0  0  0  0  0  0  0  0  0  0  0  0
   15.7583    2.0794    0.2673 H   0  0  0  0  0  0  0  0  0  0  0  0
   14.6234    2.7564   -0.6951 H   0  0  0  0  0  0  0  0  0  0  0  0
  1  3  1  6  0  0  0
  1 13  1  0  0  0  0
  1 17  1  0  0  0  0
  1  2  1  0  0  0  0
  3  5  1  6  0  0  0
  3 16  1  0  0  0  0
  3  4  1  0  0  0  0
  5  7  1  6  0  0  0
  5 15  1  0  0  0  0
  5  6  1  0  0  0  0
  7  8  1  6  0  0  0
  7 14  1  0  0  0  0
  9  7  1  6  0  0  0
  9 13  1  0  0  0  0
  9 11  1  0  0  0  0
  9 10  1  0  0  0  0
 11 12  1  0  0  0  0
 11 57  1  0  0  0  0
 11 58  1  0  0  0  0
 12 59  1  0  0  0  0
 12 60  1  0  0  0  0
 14 61  1  0  0  0  0
 15 62  1  0  0  0  0
 16 63  1  0  0  0  0
 18 20  1  1  0  0  0
 18 36  1  0  0  0  0
 18 19  1  0  0  0  0
 18 17  1  0  0  0  0
 20 21  1  1  0  0  0
 20 22  1  0  0  0  0
 20 56  1  0  0  0  0
 22 23  1  0  0  0  0
 22 64  1  0  0  0  0
 22 65  1  0  0  0  0
 23 25  1  0  0  0  0
 23 24  1  1  0  0  0
 25 26  1  0  0  0  0
 25 66  1  0  0  0  0
 26 27  2  0  0  0  0
 28 30  1  0  0  0  0
 28 33  1  0  0  0  0
 28 29  1  6  0  0  0
 28 26  1  0  0  0  0
 30 31  1  0  0  0  0
 30 67  1  0  0  0  0
 30 68  1  0  0  0  0
 31 32  1  0  0  0  0
 31 69  1  0  0  0  0
 31 70  1  0  0  0  0
 32 71  1  0  0  0  0
 32 72  1  0  0  0  0
 33 73  1  0  0  0  0
 34 23  1  1  0  0  0
 34 35  1  0  0  0  0
 34 39  1  0  0  0  0
 36 34  1  6  0  0  0
 36 38  1  0  0  0  0
 36 37  1  0  0  0  0
 38 74  1  0  0  0  0
 40 42  1  1  0  0  0
 40 53  1  0  0  0  0
 40 41  1  0  0  0  0
 40 39  1  0  0  0  0
 42 45  1  1  0  0  0
 42 44  1  0  0  0  0
 42 43  1  0  0  0  0
 44 75  1  0  0  0  0
 45 48  1  1  0  0  0
 45 47  1  0  0  0  0
 45 46  1  0  0  0  0
 47 76  1  0  0  0  0
 47 77  1  0  0  0  0
 48 49  1  0  0  0  0
 48 50  1  0  0  0  0
 48 51  1  6  0  0  0
 50 78  1  0  0  0  0
 51 53  1  0  0  0  0
 51 54  1  0  0  0  0
 51 52  1  1  0  0  0
 54 55  1  0  0  0  0
 54 79  1  0  0  0  0
 54 80  1  0  0  0  0
 55 81  1  0  0  0  0
 56 82  1  0  0  0  0
 56 83  1  0  0  0  0
M  END
$$$$
