@<TRIPOS>MOLECULE
2KTZ_ISH_A_39
 50 52 0 0 0
SMALL
GASTEIGER

@<TRIPOS>ATOM
      1 C          -0.6505    1.8729    0.0437 C.ar    1  UNL1       -0.0175
      2 C           0.7463    1.9057    0.0391 C.ar    1  UNL1       -0.0307
      3 C           1.4549    0.6997    0.0532 C.ar    1  UNL1        0.0914
      4 C           0.7531   -0.4874    0.0771 C.ar    1  UNL1        0.0769
      5 C          -0.6076   -0.6345    0.0965 C.ar    1  UNL1        0.0234
      6 C          -1.2819    0.6377    0.0569 C.ar    1  UNL1        0.1263
      7 O          -2.6616    0.5237    0.0216 O.3     1  UNL1       -0.4869
      8 C          -2.9039   -0.8916   -0.2397 C.3     1  UNL1        0.1169
      9 H          -3.7526   -1.1958    0.3826 H       1  UNL1        0.0749
     10 C          -1.6375   -1.6727    0.1599 C.3     1  UNL1        0.0162
     11 C          -3.2554   -1.0608   -1.7381 C.3     1  UNL1        0.0357
     12 N          -3.5023   -2.4488   -2.1854 N.3     1  UNL1       -0.3048
     13 C          -4.6519   -3.0478   -1.5069 C.3     1  UNL1       -0.0129
     14 C          -3.7120   -2.4674   -3.6363 C.3     1  UNL1       -0.0129
     15 N           1.6763   -1.4844    0.0695 N.ar    1  UNL1       -0.3117
     16 C           2.9123   -0.8547    0.0460 C.ar    1  UNL1        0.1940
     17 N           2.7987    0.4523    0.0456 N.ar    1  UNL1       -0.2146
     18 N           4.0838   -1.5127    0.0249 N.pl3   1  UNL1       -0.3288
     19 C           1.4643   -2.9158    0.0068 C.3     1  UNL1        0.0276
     20 C           2.0279   -3.7395    1.1617 C.3     1  UNL1       -0.0221
     21 C           1.5591   -3.2850    2.5493 C.3     1  UNL1       -0.0001
     22 N           2.0945   -4.1519    3.6191 N.3     1  UNL1       -0.3083
     23 C           3.5599   -4.1103    3.6740 C.3     1  UNL1       -0.0130
     24 C           1.5529   -3.7416    4.9185 C.3     1  UNL1       -0.0130
     25 H          -1.2378    2.7832    0.0239 H       1  UNL1        0.0655
     26 H           1.2809    2.8487    0.0143 H       1  UNL1        0.0641
     27 H          -1.4701   -2.5263   -0.4974 H       1  UNL1        0.0351
     28 H          -1.7268   -2.0375    1.1898 H       1  UNL1        0.0351
     29 H          -2.4208   -0.6504   -2.3242 H       1  UNL1        0.0463
     30 H          -4.1151   -0.4183   -1.9714 H       1  UNL1        0.0463
     31 H          -4.4395   -3.1994   -0.4437 H       1  UNL1        0.0391
     32 H          -4.8676   -4.0425   -1.9136 H       1  UNL1        0.0391
     33 H          -5.5541   -2.4341   -1.6016 H       1  UNL1        0.0391
     34 H          -2.8291   -2.0816   -4.1582 H       1  UNL1        0.0391
     35 H          -4.5805   -1.8694   -3.9348 H       1  UNL1        0.0391
     36 H          -3.8596   -3.4932   -3.9923 H       1  UNL1        0.0391
     37 H           4.1624   -2.4321   -0.3884 H       1  UNL1        0.1451
     38 H           4.8915   -0.9252   -0.1641 H       1  UNL1        0.1451
     39 H           1.9061   -3.2535   -0.9387 H       1  UNL1        0.0493
     40 H           0.4030   -3.1268   -0.0694 H       1  UNL1        0.0493
     41 H           3.1174   -3.7184    1.0985 H       1  UNL1        0.0295
     42 H           1.7314   -4.7852    1.0081 H       1  UNL1        0.0295
     43 H           0.4620   -3.3342    2.5693 H       1  UNL1        0.0427
     44 H           1.8373   -2.2392    2.7292 H       1  UNL1        0.0427
     45 H           4.0013   -4.5889    2.7942 H       1  UNL1        0.0391
     46 H           3.9345   -4.6808    4.5308 H       1  UNL1        0.0391
     47 H           3.9416   -3.0856    3.7460 H       1  UNL1        0.0391
     48 H           0.4605   -3.8209    4.9274 H       1  UNL1        0.0391
     49 H           1.8306   -2.7132    5.1769 H       1  UNL1        0.0391
     50 H           1.9191   -4.4048    5.7111 H       1  UNL1        0.0391
@<TRIPOS>BOND
     1     1     2   ar
     2     1     6   ar
     3     1    25    1
     4     2     3   ar
     5     2    26    1
     6     3     4   ar
     7     3    17   ar
     8     4     5   ar
     9     4    15   ar
    10     5     6   ar
    11     5    10    1
    12     6     7    1
    13     7     8    1
    14     8     9    1
    15     8    10    1
    16     8    11    1
    17    10    27    1
    18    10    28    1
    19    11    12    1
    20    11    29    1
    21    11    30    1
    22    12    13    1
    23    12    14    1
    24    13    31    1
    25    13    32    1
    26    13    33    1
    27    14    34    1
    28    14    35    1
    29    14    36    1
    30    15    16   ar
    31    15    19    1
    32    16    17   ar
    33    16    18    1
    34    18    37    1
    35    18    38    1
    36    19    20    1
    37    19    39    1
    38    19    40    1
    39    20    21    1
    40    20    41    1
    41    20    42    1
    42    21    22    1
    43    21    43    1
    44    21    44    1
    45    22    23    1
    46    22    24    1
    47    23    45    1
    48    23    46    1
    49    23    47    1
    50    24    48    1
    51    24    49    1
    52    24    50    1
