2KTZ_ISH_A_39
 OpenBabel03221817243D

 50 52  0  0  1  0  0  0  0  0999 V2000
   -0.6505    1.8729    0.0437 C   0  0  0  0  0  0  0  0  0  0  0  0
    0.7463    1.9057    0.0391 C   0  0  0  0  0  0  0  0  0  0  0  0
    1.4549    0.6997    0.0532 C   0  0  0  0  0  0  0  0  0  0  0  0
    0.7531   -0.4874    0.0771 C   0  0  0  0  0  0  0  0  0  0  0  0
   -0.6076   -0.6345    0.0965 C   0  0  0  0  0  0  0  0  0  0  0  0
   -1.2819    0.6377    0.0569 C   0  0  0  0  0  0  0  0  0  0  0  0
   -2.6616    0.5237    0.0216 O   0  0  0  0  0  0  0  0  0  0  0  0
   -2.9039   -0.8916   -0.2397 C   0  0  2  0  0  0  0  0  0  0  0  0
   -3.7526   -1.1958    0.3826 H   0  0  0  0  0  0  0  0  0  0  0  0
   -1.6375   -1.6727    0.1599 C   0  0  0  0  0  0  0  0  0  0  0  0
   -3.2554   -1.0608   -1.7381 C   0  0  0  0  0  0  0  0  0  0  0  0
   -3.5023   -2.4488   -2.1854 N   0  0  0  0  0  0  0  0  0  0  0  0
   -4.6519   -3.0478   -1.5069 C   0  0  0  0  0  0  0  0  0  0  0  0
   -3.7120   -2.4674   -3.6363 C   0  0  0  0  0  0  0  0  0  0  0  0
    1.6763   -1.4844    0.0695 N   0  0  0  0  0  0  0  0  0  0  0  0
    2.9123   -0.8547    0.0460 C   0  0  0  0  0  0  0  0  0  0  0  0
    2.7987    0.4523    0.0456 N   0  0  0  0  0  0  0  0  0  0  0  0
    4.0838   -1.5127    0.0249 N   0  0  0  0  0  0  0  0  0  0  0  0
    1.4643   -2.9158    0.0068 C   0  0  0  0  0  0  0  0  0  0  0  0
    2.0279   -3.7395    1.1617 C   0  0  0  0  0  0  0  0  0  0  0  0
    1.5591   -3.2850    2.5493 C   0  0  0  0  0  0  0  0  0  0  0  0
    2.0945   -4.1519    3.6191 N   0  0  0  0  0  0  0  0  0  0  0  0
    3.5599   -4.1103    3.6740 C   0  0  0  0  0  0  0  0  0  0  0  0
    1.5529   -3.7416    4.9185 C   0  0  0  0  0  0  0  0  0  0  0  0
   -1.2378    2.7832    0.0239 H   0  0  0  0  0  0  0  0  0  0  0  0
    1.2809    2.8487    0.0143 H   0  0  0  0  0  0  0  0  0  0  0  0
   -1.4701   -2.5263   -0.4974 H   0  0  0  0  0  0  0  0  0  0  0  0
   -1.7268   -2.0375    1.1898 H   0  0  0  0  0  0  0  0  0  0  0  0
   -2.4208   -0.6504   -2.3242 H   0  0  0  0  0  0  0  0  0  0  0  0
   -4.1151   -0.4183   -1.9714 H   0  0  0  0  0  0  0  0  0  0  0  0
   -4.4395   -3.1994   -0.4437 H   0  0  0  0  0  0  0  0  0  0  0  0
   -4.8676   -4.0425   -1.9136 H   0  0  0  0  0  0  0  0  0  0  0  0
   -5.5541   -2.4341   -1.6016 H   0  0  0  0  0  0  0  0  0  0  0  0
   -2.8291   -2.0816   -4.1582 H   0  0  0  0  0  0  0  0  0  0  0  0
   -4.5805   -1.8694   -3.9348 H   0  0  0  0  0  0  0  0  0  0  0  0
   -3.8596   -3.4932   -3.9923 H   0  0  0  0  0  0  0  0  0  0  0  0
    4.1624   -2.4321   -0.3884 H   0  0  0  0  0  0  0  0  0  0  0  0
    4.8915   -0.9252   -0.1641 H   0  0  0  0  0  0  0  0  0  0  0  0
    1.9061   -3.2535   -0.9387 H   0  0  0  0  0  0  0  0  0  0  0  0
    0.4030   -3.1268   -0.0694 H   0  0  0  0  0  0  0  0  0  0  0  0
    3.1174   -3.7184    1.0985 H   0  0  0  0  0  0  0  0  0  0  0  0
    1.7314   -4.7852    1.0081 H   0  0  0  0  0  0  0  0  0  0  0  0
    0.4620   -3.3342    2.5693 H   0  0  0  0  0  0  0  0  0  0  0  0
    1.8373   -2.2392    2.7292 H   0  0  0  0  0  0  0  0  0  0  0  0
    4.0013   -4.5889    2.7942 H   0  0  0  0  0  0  0  0  0  0  0  0
    3.9345   -4.6808    4.5308 H   0  0  0  0  0  0  0  0  0  0  0  0
    3.9416   -3.0856    3.7460 H   0  0  0  0  0  0  0  0  0  0  0  0
    0.4605   -3.8209    4.9274 H   0  0  0  0  0  0  0  0  0  0  0  0
    1.8306   -2.7132    5.1769 H   0  0  0  0  0  0  0  0  0  0  0  0
    1.9191   -4.4048    5.7111 H   0  0  0  0  0  0  0  0  0  0  0  0
  1  2  2  0  0  0  0
  1  6  1  0  0  0  0
  1 25  1  0  0  0  0
  2  3  1  0  0  0  0
  2 26  1  0  0  0  0
  3  4  2  0  0  0  0
  3 17  1  0  0  0  0
  4  5  1  0  0  0  0
  4 15  1  0  0  0  0
  5  6  2  0  0  0  0
  5 10  1  0  0  0  0
  6  7  1  0  0  0  0
  7  8  1  0  0  0  0
  8  9  1  1  0  0  0
  8 10  1  0  0  0  0
  8 11  1  0  0  0  0
 10 27  1  0  0  0  0
 10 28  1  0  0  0  0
 11 12  1  0  0  0  0
 11 29  1  0  0  0  0
 11 30  1  0  0  0  0
 12 13  1  0  0  0  0
 12 14  1  0  0  0  0
 13 31  1  0  0  0  0
 13 32  1  0  0  0  0
 13 33  1  0  0  0  0
 14 34  1  0  0  0  0
 14 35  1  0  0  0  0
 14 36  1  0  0  0  0
 15 16  1  0  0  0  0
 15 19  1  0  0  0  0
 16 17  2  0  0  0  0
 16 18  1  0  0  0  0
 18 37  1  0  0  0  0
 18 38  1  0  0  0  0
 19 20  1  0  0  0  0
 19 39  1  0  0  0  0
 19 40  1  0  0  0  0
 20 21  1  0  0  0  0
 20 41  1  0  0  0  0
 20 42  1  0  0  0  0
 21 22  1  0  0  0  0
 21 43  1  0  0  0  0
 21 44  1  0  0  0  0
 22 23  1  0  0  0  0
 22 24  1  0  0  0  0
 23 45  1  0  0  0  0
 23 46  1  0  0  0  0
 23 47  1  0  0  0  0
 24 48  1  0  0  0  0
 24 49  1  0  0  0  0
 24 50  1  0  0  0  0
M  END
$$$$
