REMARK  6 active torsions:
REMARK  status: ('A' for Active; 'I' for Inactive)
REMARK    1  A    between atoms: C_8  and  C_10 
REMARK    2  A    between atoms: C_10  and  N_11 
REMARK    3  A    between atoms: N_14  and  C_18 
REMARK    4  A    between atoms: C_18  and  C_19 
REMARK    5  A    between atoms: C_19  and  C_20 
REMARK    6  A    between atoms: C_20  and  N_21 
ROOT
ATOM      1  C   UNL d   1      -0.650   1.873   0.044  0.00  0.00     0.040 A 
ATOM      2  C   UNL d   1       0.746   1.906   0.039  0.00  0.00     0.037 A 
ATOM      3  C   UNL d   1       1.455   0.700   0.053  0.00  0.00     0.104 A 
ATOM      4  C   UNL d   1       0.753  -0.487   0.077  0.00  0.00     0.090 A 
ATOM      5  C   UNL d   1      -0.608  -0.634   0.097  0.00  0.00     0.008 A 
ATOM      6  C   UNL d   1      -1.282   0.638   0.057  0.00  0.00     0.078 A 
ATOM      7  O   UNL d   1      -2.662   0.524   0.022  0.00  0.00    -0.343 OA
ATOM      8  C   UNL d   1      -2.904  -0.892  -0.240  0.00  0.00     0.161 C 
ATOM      9  C   UNL d   1      -1.637  -1.673   0.160  0.00  0.00     0.078 C 
ATOM     10  N   UNL d   1       1.676  -1.484   0.070  0.00  0.00    -0.179 N 
ATOM     11  C   UNL d   1       2.912  -0.855   0.046  0.00  0.00     0.701 A 
ATOM     12  N   UNL d   1       2.799   0.452   0.046  0.00  0.00    -0.063 NA
ATOM     13  N   UNL d   1       4.084  -1.513   0.025  0.00  0.00    -0.233 N 
ATOM     14  H   UNL d   1       4.162  -2.432  -0.388  0.00  0.00     0.174 HD
ATOM     15  H   UNL d   1       4.891  -0.925  -0.164  0.00  0.00     0.174 HD
ENDROOT
BRANCH  10  16
ATOM     16  C   UNL d   1       1.464  -2.916   0.007  0.00  0.00     0.149 C 
BRANCH  16  17
ATOM     17  C   UNL d   1       2.028  -3.740   1.162  0.00  0.00     0.051 C 
BRANCH  17  18
ATOM     18  C   UNL d   1       1.559  -3.285   2.549  0.00  0.00     0.273 C 
BRANCH  18  19
ATOM     19  N   UNL d   1       2.095  -4.152   3.619  0.00  0.00     0.080 N 
ATOM     20  C   UNL d   1       3.560  -4.110   3.674  0.00  0.00     0.309 C 
ATOM     21  C   UNL d   1       1.553  -3.742   4.918  0.00  0.00     0.309 C 
ENDBRANCH  18  19
ENDBRANCH  17  18
ENDBRANCH  16  17
ENDBRANCH  10  16
BRANCH   8  22
ATOM     22  C   UNL d   1      -3.255  -1.061  -1.738  0.00  0.00     0.303 C 
BRANCH  22  23
ATOM     23  N   UNL d   1      -3.502  -2.449  -2.185  0.00  0.00     0.082 N 
ATOM     24  C   UNL d   1      -4.652  -3.048  -1.507  0.00  0.00     0.309 C 
ATOM     25  C   UNL d   1      -3.712  -2.467  -3.636  0.00  0.00     0.309 C 
ENDBRANCH  22  23
ENDBRANCH   8  22
TORSDOF 6
