REMARK  13 active torsions:
REMARK  status: ('A' for Active; 'I' for Inactive)
REMARK    1  A    between atoms: CA_2  and  N_1 
REMARK    2  A    between atoms: CA_2  and  C_3 
REMARK    3  A    between atoms: CA_2  and  C_6 
REMARK    4  A    between atoms: C_3  and  OXT_5 
REMARK    5  A    between atoms: C_6  and  C_7 
REMARK    6  A    between atoms: C_8  and  C_7 
REMARK    7  A    between atoms: C_8  and  N_9 
REMARK    8  A    between atoms: C_8  and  C_10 
REMARK    9  A    between atoms: C_10  and  C_11 
REMARK   10  A    between atoms: C_13  and  N_18 
REMARK   11  A    between atoms: C_14  and  O_17 
REMARK   12  A    between atoms: C_15  and  O_16 
REMARK   13  A    between atoms: C_22  and  N_23 
ROOT
ATOM      1  C   UNL d   1       7.238   3.911  -1.925  0.00  0.00     0.157 C 
ATOM      2  O   UNL d   1       6.495   5.109  -1.629  0.00  0.00    -0.355 OA
ATOM      3  C   UNL d   1       7.392   6.205  -1.880  0.00  0.00     0.262 C 
ATOM      4  C   UNL d   1       8.796   5.721  -1.505  0.00  0.00     0.198 C 
ATOM      5  C   UNL d   1       8.670   4.198  -1.476  0.00  0.00     0.180 C 
ENDROOT
BRANCH   1   6
ATOM      6  C   UNL d   1       6.553   2.721  -1.239  0.00  0.00     0.070 C 
BRANCH   6   7
ATOM      7  C   UNL d   1       7.119   1.335  -1.605  0.00  0.00     0.220 C 
BRANCH   7   8
ATOM      8  N   UNL d   1       8.486   1.172  -1.102  0.00  0.00     0.083 N 
ATOM      9  H   UNL d   1       9.117   1.801  -1.617  0.00  0.00     0.313 HD
ATOM     10  H   UNL d   1       8.824   0.238  -1.340  0.00  0.00     0.313 HD
ENDBRANCH   7   8
BRANCH   7  11
ATOM     11  C   UNL d   1       6.285   0.178  -1.014  0.00  0.00     0.038 C 
BRANCH  11  12
ATOM     12  C   UNL d   1       4.809   0.112  -1.437  0.00  0.00     0.049 C 
BRANCH  12  13
ATOM     13  CA  UNL d   1       4.540   0.109  -2.948  0.00  0.00     0.314 C 
BRANCH  13  14
ATOM     14  C   UNL d   1       5.113  -1.148  -3.636  0.00  0.00     0.173 C 
ATOM     15  O   UNL d   1       6.299  -1.441  -3.661  0.00  0.00    -0.648 OA
BRANCH  14  16
ATOM     16  OXT UNL d   1       4.178  -1.915  -4.246  0.00  0.00    -0.775 OA
ATOM     17  HXT UNL d   1       3.294  -1.522  -4.132  0.00  0.00     0.167 HD
ENDBRANCH  14  16
ENDBRANCH  13  14
BRANCH  13  18
ATOM     18  N   UNL d   1       3.080   0.230  -3.149  0.00  0.00     0.093 N 
ATOM     19  H1  UNL d   1       2.527  -0.461  -2.648  0.00  0.00     0.314 HD
ATOM     20  H2  UNL d   1       2.803   0.379  -4.116  0.00  0.00     0.314 HD
ENDBRANCH  13  18
ENDBRANCH  12  13
ENDBRANCH  11  12
ENDBRANCH   7  11
ENDBRANCH   6   7
ENDBRANCH   1   6
BRANCH   5  21
ATOM     21  O   UNL d   1       9.616   3.556  -2.332  0.00  0.00    -0.390 OA
ATOM     22  H   UNL d   1      10.233   4.264  -2.619  0.00  0.00     0.210 HD
ENDBRANCH   5  21
BRANCH   3  23
ATOM     23  N   UNL d   1       6.972   7.368  -1.123  0.00  0.00    -0.294 N 
ATOM     24  C   UNL d   1       5.935   7.453  -0.234  0.00  0.00     0.214 A 
ATOM     25  N   UNL d   1       5.820   8.661   0.274  0.00  0.00    -0.236 NA
ATOM     26  C   UNL d   1       6.829   9.393  -0.317  0.00  0.00     0.144 A 
ATOM     27  C   UNL d   1       7.220  10.736  -0.195  0.00  0.00     0.135 A 
ATOM     28  C   UNL d   1       7.557   8.605  -1.195  0.00  0.00     0.166 A 
ATOM     29  N   UNL d   1       8.250  11.176  -0.954  0.00  0.00    -0.228 NA
ATOM     30  C   UNL d   1       8.875  10.293  -1.764  0.00  0.00     0.237 A 
ATOM     31  N   UNL d   1       8.610   8.977  -1.947  0.00  0.00    -0.222 NA
BRANCH  27  32
ATOM     32  N   UNL d   1       6.586  11.636   0.652  0.00  0.00    -0.285 NA
ATOM     33  H   UNL d   1       5.652  11.346   0.921  0.00  0.00     0.125 HD
ATOM     34  H   UNL d   1       6.715  12.597   0.363  0.00  0.00     0.125 HD
ENDBRANCH  27  32
ENDBRANCH   3  23
BRANCH   4  35
ATOM     35  O   UNL d   1       9.801   6.131  -2.442  0.00  0.00    -0.388 OA
ATOM     36  H   UNL d   1       9.803   7.112  -2.435  0.00  0.00     0.210 HD
ENDBRANCH   4  35
TORSDOF 13
