@<TRIPOS>MOLECULE
3GX2_SFG_A_301
 50 52 0 0 0
SMALL
GASTEIGER

@<TRIPOS>ATOM
      1 N           3.0796    0.2300   -3.1494 N.3     1  UNL1       -0.3184
      2 CA          4.5396    0.1086   -2.9480 C.3     1  UNL1        0.1033
      3 HA          4.9946    0.9781   -3.4320 H       1  UNL1        0.0574
      4 C           5.1132   -1.1482   -3.6360 C.2     1  UNL1        0.3217
      5 O           6.2993   -1.4411   -3.6608 O.2     1  UNL1       -0.2493
      6 OXT         4.1779   -1.9149   -4.2464 O.3     1  UNL1       -0.4795
      7 C           4.8087    0.1116   -1.4365 C.3     1  UNL1       -0.0260
      8 C           6.2848    0.1784   -1.0143 C.3     1  UNL1       -0.0357
      9 C           7.1193    1.3351   -1.6051 C.3     1  UNL1        0.0073
     10 H           7.1507    1.2366   -2.6956 H       1  UNL1        0.0459
     11 N           8.4860    1.1723   -1.1024 N.3     1  UNL1       -0.3272
     12 C           6.5531    2.7212   -1.2388 C.3     1  UNL1       -0.0087
     13 C           7.2384    3.9107   -1.9249 C.3     1  UNL1        0.0911
     14 H           7.1962    3.7617   -3.0119 H       1  UNL1        0.0624
     15 O           6.4948    5.1090   -1.6292 O.3     1  UNL1       -0.3479
     16 C           7.3917    6.2052   -1.8803 C.3     1  UNL1        0.1666
     17 H           7.3214    6.4733   -2.9417 H       1  UNL1        0.0866
     18 C           8.7959    5.7209   -1.5054 C.3     1  UNL1        0.1285
     19 H           9.1037    6.0757   -0.5144 H       1  UNL1        0.0665
     20 C           8.6701    4.1984   -1.4759 C.3     1  UNL1        0.1114
     21 H           8.8376    3.8498   -0.4509 H       1  UNL1        0.0647
     22 O           9.6159    3.5558   -2.3321 O.3     1  UNL1       -0.3865
     23 O           9.8012    6.1311   -2.4415 O.3     1  UNL1       -0.3847
     24 N           6.9721    7.3680   -1.1234 N.ar    1  UNL1       -0.2855
     25 C           5.9354    7.4528   -0.2345 C.ar    1  UNL1        0.1004
     26 N           5.8200    8.6612    0.2741 N.ar    1  UNL1       -0.2306
     27 C           6.8289    9.3926   -0.3167 C.ar    1  UNL1        0.1473
     28 C           7.2203   10.7358   -0.1952 C.ar    1  UNL1        0.1472
     29 N           6.5863   11.6361    0.6516 N.pl3   1  UNL1       -0.3413
     30 N           8.2498   11.1761   -0.9537 N.ar    1  UNL1       -0.2188
     31 C           8.8747   10.2934   -1.7645 C.ar    1  UNL1        0.1205
     32 N           8.6099    8.9774   -1.9466 N.ar    1  UNL1       -0.2159
     33 C           7.5574    8.6048   -1.1951 C.ar    1  UNL1        0.1674
     34 H1          2.5275   -0.4609   -2.6482 H       1  UNL1        0.1190
     35 H2          2.8032    0.3789   -4.1156 H       1  UNL1        0.1190
     36 HXT         3.2940   -1.5215   -4.1318 H       1  UNL1        0.2951
     37 H           4.3776   -0.7941   -0.9877 H       1  UNL1        0.0286
     38 H           4.2801    0.9541   -0.9721 H       1  UNL1        0.0286
     39 H           6.7606   -0.7778   -1.2677 H       1  UNL1        0.0281
     40 H           6.3136    0.2347    0.0830 H       1  UNL1        0.0281
     41 H           9.1168    1.8013   -1.6175 H       1  UNL1        0.1185
     42 H           8.8244    0.2378   -1.3398 H       1  UNL1        0.1185
     43 H           6.5649    2.8659   -0.1498 H       1  UNL1        0.0306
     44 H           5.4922    2.7658   -1.5150 H       1  UNL1        0.0306
     45 H          10.2326    4.2639   -2.6189 H       1  UNL1        0.2100
     46 H           9.8028    7.1123   -2.4349 H       1  UNL1        0.2101
     47 H           5.2968    6.6100    0.0028 H       1  UNL1        0.1030
     48 H           5.6522   11.3458    0.9208 H       1  UNL1        0.1438
     49 H           6.7151   12.5965    0.3634 H       1  UNL1        0.1438
     50 H           9.6970   10.7001   -2.3479 H       1  UNL1        0.1048
@<TRIPOS>BOND
     1     1    34    1
     2     1    35    1
     3     2     4    1
     4     2     7    1
     5     2     3    1
     6     2     1    1
     7     4     5    2
     8     4     6    1
     9     6    36    1
    10     7     8    1
    11     7    37    1
    12     7    38    1
    13     8    39    1
    14     8    40    1
    15     9    11    1
    16     9    12    1
    17     9    10    1
    18     9     8    1
    19    11    41    1
    20    11    42    1
    21    12    13    1
    22    12    43    1
    23    12    44    1
    24    13    14    1
    25    13    15    1
    26    13    20    1
    27    15    16    1
    28    16    18    1
    29    16    24    1
    30    16    17    1
    31    18    19    1
    32    18    20    1
    33    18    23    1
    34    20    21    1
    35    20    22    1
    36    22    45    1
    37    23    46    1
    38    24    25   ar
    39    24    33   ar
    40    25    26   ar
    41    25    47    1
    42    26    27   ar
    43    27    28   ar
    44    27    33   ar
    45    28    29    1
    46    28    30   ar
    47    29    48    1
    48    29    49    1
    49    30    31   ar
    50    31    32   ar
    51    31    50    1
    52    32    33   ar
