@<TRIPOS>MOLECULE
ligands/ligand.pdb
 88 91 0 0 0
SMALL
GASTEIGER

@<TRIPOS>ATOM
      1 O           1.6547    1.4618    1.0067 O.3     1  UNL1       -0.3924
      2 C           1.3838    0.9083   -0.2766 C.3     1  UNL1        0.0730
      3 C           2.6540    0.7763   -1.1093 C.3     1  UNL1        0.1135
      4 H           2.3987    0.2134   -2.0196 H       1  UNL1        0.0647
      5 O           3.1013    2.1088   -1.5389 O.3     1  UNL1       -0.3405
      6 C           4.3873    1.8496   -2.1134 C.3     1  UNL1        0.1884
      7 H           4.1686    1.3946   -3.0844 H       1  UNL1        0.0938
      8 C           5.0085    0.8269   -1.1512 C.3     1  UNL1        0.1345
      9 H           5.7236    1.2791   -0.4581 H       1  UNL1        0.0671
     10 C           3.8696    0.1415   -0.4020 C.3     1  UNL1        0.1205
     11 H           3.8934    0.4509    0.6515 H       1  UNL1        0.0651
     12 O           3.9113   -1.3210   -0.4597 O.3     1  UNL1       -0.3410
     13 C           5.1038   -1.8891    0.1439 C.3     1  UNL1        0.1776
     14 H           5.9820   -1.3428   -0.1879 H       1  UNL1        0.0927
     15 O           5.1237   -1.7134    1.5570 O.3     1  UNL1       -0.3425
     16 C           4.3788   -2.6510    2.3407 C.3     1  UNL1        0.1022
     17 H           4.7480   -2.5058    3.3618 H       1  UNL1        0.0636
     18 C           4.6937   -4.1116    1.9858 C.3     1  UNL1        0.1100
     19 H           5.7347   -4.3192    2.2668 H       1  UNL1        0.0646
     20 C           4.5549   -4.3768    0.4919 C.3     1  UNL1        0.1033
     21 H           3.5108   -4.3536    0.1670 H       1  UNL1        0.0637
     22 C           5.4110   -3.3687   -0.2765 C.3     1  UNL1        0.0853
     23 H           6.4481   -3.5641    0.0150 H       1  UNL1        0.0535
     24 N           5.3424   -3.6870   -1.7166 N.3     1  UNL1       -0.3211
     25 O           5.0096   -5.7156    0.1972 O.3     1  UNL1       -0.3874
     26 O           3.8996   -5.0524    2.7145 O.3     1  UNL1       -0.3866
     27 C           2.8851   -2.2719    2.4139 C.3     1  UNL1        0.0222
     28 N           2.1059   -2.4918    1.1924 N.3     1  UNL1       -0.3276
     29 O           5.6288   -0.1234   -1.9784 O.3     1  UNL1       -0.3841
     30 O           5.2098    3.0036   -2.4020 O.3     1  UNL1       -0.3402
     31 C           6.5605    2.6652   -2.8609 C.3     1  UNL1        0.1166
     32 H           6.9920    2.0264   -2.0905 H       1  UNL1        0.0650
     33 C           6.6128    1.9213   -4.2443 C.3     1  UNL1        0.1055
     34 H           5.8130    1.1783   -4.3004 H       1  UNL1        0.0639
     35 O           7.8569    1.2131   -4.5285 O.3     1  UNL1       -0.3422
     36 C           8.0949    0.1017   -3.6613 C.3     1  UNL1        0.1776
     37 H           8.1813    0.4883   -2.6418 H       1  UNL1        0.0927
     38 O           7.0176   -0.8200   -3.6915 O.3     1  UNL1       -0.3425
     39 C           6.8234   -1.5138   -4.9161 C.3     1  UNL1        0.1022
     40 H           6.6970   -0.7999   -5.7398 H       1  UNL1        0.0636
     41 C           8.0374   -2.4124   -5.1501 C.3     1  UNL1        0.1100
     42 H           8.1296   -3.1505   -4.3400 H       1  UNL1        0.0646
     43 C           9.3003   -1.5348   -5.1759 C.3     1  UNL1        0.1033
     44 H           9.2933   -0.8994   -6.0683 H       1  UNL1        0.0637
     45 C           9.4057   -0.6772   -3.9021 C.3     1  UNL1        0.0853
     46 H           9.5227   -1.3794   -3.0650 H       1  UNL1        0.0535
     47 N          10.6074    0.1778   -3.8869 N.3     1  UNL1       -0.3211
     48 O          10.4553   -2.3833   -5.2815 O.3     1  UNL1       -0.3874
     49 O           7.9519   -3.1381   -6.3761 O.3     1  UNL1       -0.3866
     50 C           5.5154   -2.3163   -4.7777 C.3     1  UNL1        0.0222
     51 N           5.1452   -3.1061   -5.9584 N.3     1  UNL1       -0.3276
     52 C           6.3642    2.8914   -5.4310 C.3     1  UNL1        0.0355
     53 H           6.5667    2.3474   -6.3628 H       1  UNL1        0.0485
     54 C           7.3459    4.0675   -5.3855 C.3     1  UNL1       -0.0175
     55 C           7.3217    4.8573   -4.0676 C.3     1  UNL1        0.0351
     56 H           8.1901    5.5290   -4.1011 H       1  UNL1        0.0485
     57 C           7.4830    3.9160   -2.8501 C.3     1  UNL1        0.0990
     58 H           7.3058    4.4854   -1.9289 H       1  UNL1        0.0636
     59 O           8.8450    3.4620   -2.7838 O.3     1  UNL1       -0.3876
     60 N           6.1508    5.7341   -3.9471 N.3     1  UNL1       -0.3250
     61 N           4.9766    3.3750   -5.5213 N.3     1  UNL1       -0.3250
     62 H           0.8660    1.9670    1.2725 H       1  UNL1        0.2095
     63 H           0.6702    1.5647   -0.7872 H       1  UNL1        0.0584
     64 H           0.9144   -0.0678   -0.1302 H       1  UNL1        0.0584
     65 H           4.3985   -3.5028   -2.0415 H       1  UNL1        0.1187
     66 H           5.4643   -4.6993   -1.7911 H       1  UNL1        0.1187
     67 H           4.7077   -6.2725    0.9422 H       1  UNL1        0.2100
     68 H           2.9780   -4.9398    2.4177 H       1  UNL1        0.2100
     69 H           2.4061   -2.8434    3.2144 H       1  UNL1        0.0448
     70 H           2.8164   -1.2108    2.6756 H       1  UNL1        0.0448
     71 H           2.6542   -2.1427    0.3949 H       1  UNL1        0.1183
     72 H           1.3144   -1.8456    1.2192 H       1  UNL1        0.1183
     73 H           6.5418   -0.2704   -1.6870 H       1  UNL1        0.2101
     74 H          10.4539    0.9565   -4.5280 H       1  UNL1        0.1187
     75 H          11.3686   -0.3781   -4.2817 H       1  UNL1        0.1187
     76 H          10.1943   -3.0788   -5.9182 H       1  UNL1        0.2100
     77 H           7.0277   -3.4763   -6.4166 H       1  UNL1        0.2100
     78 H           4.6898   -1.6482   -4.5026 H       1  UNL1        0.0448
     79 H           5.6308   -3.0106   -3.9507 H       1  UNL1        0.0448
     80 H           4.7434   -2.4813   -6.6577 H       1  UNL1        0.1183
     81 H           4.3755   -3.7258   -5.6862 H       1  UNL1        0.1183
     82 H           7.1714    4.7397   -6.2364 H       1  UNL1        0.0297
     83 H           8.3621    3.6765   -5.5352 H       1  UNL1        0.0297
     84 H           9.4185    4.2477   -2.7463 H       1  UNL1        0.2100
     85 H           5.4328    5.2900   -3.3717 H       1  UNL1        0.1185
     86 H           5.7256    5.8630   -4.8682 H       1  UNL1        0.1185
     87 H           4.6821    3.7400   -4.6126 H       1  UNL1        0.1185
     88 H           4.3540    2.5898   -5.7087 H       1  UNL1        0.1185
@<TRIPOS>BOND
     1     1     2    1
     2     1    62    1
     3     2     3    1
     4     2    63    1
     5     2    64    1
     6     3     4    1
     7     3     5    1
     8     3    10    1
     9     5     6    1
    10     6     8    1
    11     6    30    1
    12     6     7    1
    13     8     9    1
    14     8    10    1
    15     8    29    1
    16    10    11    1
    17    10    12    1
    18    12    13    1
    19    13    14    1
    20    13    15    1
    21    13    22    1
    22    15    16    1
    23    16    18    1
    24    16    27    1
    25    16    17    1
    26    18    20    1
    27    18    26    1
    28    18    19    1
    29    20    21    1
    30    20    22    1
    31    20    25    1
    32    22    24    1
    33    22    23    1
    34    24    65    1
    35    24    66    1
    36    25    67    1
    37    26    68    1
    38    27    28    1
    39    27    69    1
    40    27    70    1
    41    28    71    1
    42    28    72    1
    43    29    73    1
    44    30    31    1
    45    31    32    1
    46    31    57    1
    47    33    31    1
    48    33    35    1
    49    33    34    1
    50    35    36    1
    51    36    37    1
    52    36    38    1
    53    36    45    1
    54    38    39    1
    55    39    40    1
    56    39    41    1
    57    39    50    1
    58    41    43    1
    59    41    49    1
    60    41    42    1
    61    43    44    1
    62    43    45    1
    63    43    48    1
    64    45    47    1
    65    45    46    1
    66    47    74    1
    67    47    75    1
    68    48    76    1
    69    49    77    1
    70    50    51    1
    71    50    78    1
    72    50    79    1
    73    51    80    1
    74    51    81    1
    75    52    33    1
    76    52    54    1
    77    52    61    1
    78    52    53    1
    79    54    55    1
    80    54    82    1
    81    54    83    1
    82    55    57    1
    83    55    60    1
    84    55    56    1
    85    57    58    1
    86    57    59    1
    87    59    84    1
    88    60    85    1
    89    60    86    1
    90    61    87    1
    91    61    88    1
