REMARK  22 active torsions:
REMARK  status: ('A' for Active; 'I' for Inactive)
REMARK    1  A    between atoms: O_1  and  C_2 
REMARK    2  A    between atoms: C_2  and  C_3 
REMARK    3  A    between atoms: C_5  and  O_21 
REMARK    4  A    between atoms: C_6  and  O_20 
REMARK    5  A    between atoms: C_7  and  O_8 
REMARK    6  A    between atoms: O_8  and  C_9 
REMARK    7  A    between atoms: C_11  and  C_18 
REMARK    8  A    between atoms: C_12  and  O_17 
REMARK    9  A    between atoms: C_13  and  O_16 
REMARK   10  A    between atoms: C_14  and  N_15 
REMARK   11  A    between atoms: C_18  and  N_19 
REMARK   12  A    between atoms: O_21  and  C_22 
REMARK   13  A    between atoms: C_23  and  O_24 
REMARK   14  A    between atoms: O_24  and  C_25 
REMARK   15  A    between atoms: C_27  and  C_34 
REMARK   16  A    between atoms: C_28  and  O_33 
REMARK   17  A    between atoms: C_29  and  O_32 
REMARK   18  A    between atoms: C_30  and  N_31 
REMARK   19  A    between atoms: C_34  and  N_35 
REMARK   20  A    between atoms: C_36  and  N_42 
REMARK   21  A    between atoms: C_38  and  N_41 
REMARK   22  A    between atoms: C_39  and  O_40 
ROOT
ATOM      1  C   UNL d   1       6.561   2.665  -2.861  0.00  0.00     0.186 C 
ATOM      2  C   UNL d   1       6.613   1.921  -4.244  0.00  0.00     0.189 C 
ATOM      3  C   UNL d   1       6.364   2.891  -5.431  0.00  0.00     0.251 C 
ATOM      4  C   UNL d   1       7.346   4.067  -5.386  0.00  0.00     0.076 C 
ATOM      5  C   UNL d   1       7.322   4.857  -4.068  0.00  0.00     0.251 C 
ATOM      6  C   UNL d   1       7.483   3.916  -2.850  0.00  0.00     0.182 C 
ENDROOT
BRANCH   1   7
ATOM      7  O   UNL d   1       5.210   3.004  -2.402  0.00  0.00    -0.348 OA
BRANCH   7   8
ATOM      8  C   UNL d   1       4.387   1.850  -2.113  0.00  0.00     0.292 C 
ATOM      9  O   UNL d   1       3.101   2.109  -1.539  0.00  0.00    -0.348 OA
ATOM     10  C   UNL d   1       2.654   0.776  -1.109  0.00  0.00     0.180 C 
ATOM     11  C   UNL d   1       3.870   0.141  -0.402  0.00  0.00     0.189 C 
ATOM     12  C   UNL d   1       5.008   0.827  -1.151  0.00  0.00     0.205 C 
BRANCH  10  13
ATOM     13  C   UNL d   1       1.384   0.908  -0.277  0.00  0.00     0.198 C 
BRANCH  13  14
ATOM     14  O   UNL d   1       1.655   1.462   1.007  0.00  0.00    -0.398 OA
ATOM     15  H   UNL d   1       0.866   1.967   1.272  0.00  0.00     0.209 HD
ENDBRANCH  13  14
ENDBRANCH  10  13
BRANCH  11  16
ATOM     16  O   UNL d   1       3.911  -1.321  -0.460  0.00  0.00    -0.348 OA
BRANCH  16  17
ATOM     17  C   UNL d   1       5.104  -1.889   0.144  0.00  0.00     0.296 C 
ATOM     18  O   UNL d   1       5.124  -1.713   1.557  0.00  0.00    -0.349 OA
ATOM     19  C   UNL d   1       4.379  -2.651   2.341  0.00  0.00     0.183 C 
ATOM     20  C   UNL d   1       4.694  -4.112   1.986  0.00  0.00     0.179 C 
ATOM     21  C   UNL d   1       4.555  -4.377   0.492  0.00  0.00     0.187 C 
ATOM     22  C   UNL d   1       5.411  -3.369  -0.277  0.00  0.00     0.303 C 
BRANCH  19  23
ATOM     23  C   UNL d   1       2.885  -2.272   2.414  0.00  0.00     0.301 C 
BRANCH  23  24
ATOM     24  N   UNL d   1       2.106  -2.492   1.192  0.00  0.00     0.080 N 
ATOM     25  H   UNL d   1       2.654  -2.143   0.395  0.00  0.00     0.312 HD
ATOM     26  H   UNL d   1       1.314  -1.846   1.219  0.00  0.00     0.312 HD
ENDBRANCH  23  24
ENDBRANCH  19  23
BRANCH  20  27
ATOM     27  O   UNL d   1       3.900  -5.052   2.715  0.00  0.00    -0.390 OA
ATOM     28  H   UNL d   1       2.978  -4.940   2.418  0.00  0.00     0.210 HD
ENDBRANCH  20  27
BRANCH  21  29
ATOM     29  O   UNL d   1       5.010  -5.716   0.197  0.00  0.00    -0.391 OA
ATOM     30  H   UNL d   1       4.708  -6.272   0.942  0.00  0.00     0.210 HD
ENDBRANCH  21  29
BRANCH  22  31
ATOM     31  N   UNL d   1       5.342  -3.687  -1.717  0.00  0.00     0.090 N 
ATOM     32  H   UNL d   1       4.399  -3.503  -2.042  0.00  0.00     0.313 HD
ATOM     33  H   UNL d   1       5.464  -4.699  -1.791  0.00  0.00     0.313 HD
ENDBRANCH  22  31
ENDBRANCH  16  17
ENDBRANCH  11  16
BRANCH  12  34
ATOM     34  O   UNL d   1       5.629  -0.123  -1.978  0.00  0.00    -0.388 OA
ATOM     35  H   UNL d   1       6.542  -0.270  -1.687  0.00  0.00     0.210 HD
ENDBRANCH  12  34
ENDBRANCH   7   8
ENDBRANCH   1   7
BRANCH   6  36
ATOM     36  O   UNL d   1       8.845   3.462  -2.784  0.00  0.00    -0.391 OA
ATOM     37  H   UNL d   1       9.418   4.248  -2.746  0.00  0.00     0.210 HD
ENDBRANCH   6  36
BRANCH   2  38
ATOM     38  O   UNL d   1       7.857   1.213  -4.529  0.00  0.00    -0.349 OA
BRANCH  38  39
ATOM     39  C   UNL d   1       8.095   0.102  -3.661  0.00  0.00     0.296 C 
ATOM     40  O   UNL d   1       7.018  -0.820  -3.692  0.00  0.00    -0.349 OA
ATOM     41  C   UNL d   1       6.823  -1.514  -4.916  0.00  0.00     0.183 C 
ATOM     42  C   UNL d   1       8.037  -2.412  -5.150  0.00  0.00     0.179 C 
ATOM     43  C   UNL d   1       9.300  -1.535  -5.176  0.00  0.00     0.187 C 
ATOM     44  C   UNL d   1       9.406  -0.677  -3.902  0.00  0.00     0.303 C 
BRANCH  41  45
ATOM     45  C   UNL d   1       5.515  -2.316  -4.778  0.00  0.00     0.301 C 
BRANCH  45  46
ATOM     46  N   UNL d   1       5.145  -3.106  -5.958  0.00  0.00     0.080 N 
ATOM     47  H   UNL d   1       4.743  -2.481  -6.658  0.00  0.00     0.312 HD
ATOM     48  H   UNL d   1       4.375  -3.726  -5.686  0.00  0.00     0.312 HD
ENDBRANCH  45  46
ENDBRANCH  41  45
BRANCH  42  49
ATOM     49  O   UNL d   1       7.952  -3.138  -6.376  0.00  0.00    -0.390 OA
ATOM     50  H   UNL d   1       7.028  -3.476  -6.417  0.00  0.00     0.210 HD
ENDBRANCH  42  49
BRANCH  43  51
ATOM     51  O   UNL d   1      10.455  -2.383  -5.282  0.00  0.00    -0.391 OA
ATOM     52  H   UNL d   1      10.194  -3.079  -5.918  0.00  0.00     0.210 HD
ENDBRANCH  43  51
BRANCH  44  53
ATOM     53  N   UNL d   1      10.607   0.178  -3.887  0.00  0.00     0.090 N 
ATOM     54  H   UNL d   1      10.454   0.957  -4.528  0.00  0.00     0.313 HD
ATOM     55  H   UNL d   1      11.369  -0.378  -4.282  0.00  0.00     0.313 HD
ENDBRANCH  44  53
ENDBRANCH  38  39
ENDBRANCH   2  38
BRANCH   5  56
ATOM     56  N   UNL d   1       6.151   5.734  -3.947  0.00  0.00     0.085 N 
ATOM     57  H   UNL d   1       5.433   5.290  -3.372  0.00  0.00     0.313 HD
ATOM     58  H   UNL d   1       5.726   5.863  -4.868  0.00  0.00     0.313 HD
ENDBRANCH   5  56
BRANCH   3  59
ATOM     59  N   UNL d   1       4.977   3.375  -5.521  0.00  0.00     0.085 N 
ATOM     60  H   UNL d   1       4.682   3.740  -4.613  0.00  0.00     0.313 HD
ATOM     61  H   UNL d   1       4.354   2.590  -5.709  0.00  0.00     0.313 HD
ENDBRANCH   3  59
TORSDOF 22
