REMARK  6 active torsions:
REMARK  status: ('A' for Active; 'I' for Inactive)
REMARK    1  A    between atoms: N_1  and  CA_2 
REMARK    2  A    between atoms: CA_2  and  C_3 
REMARK    3  A    between atoms: CA_2  and  CB_5 
REMARK    4  A    between atoms: CB_5  and  CG_6 
REMARK    5  A    between atoms: CG_6  and  CD_7 
REMARK    6  A    between atoms: CD_7  and  NE_8 
REMARK       I    between atoms: NE_8  and  CZ_9 
REMARK       I    between atoms: CZ_9  and  NH1_10 
ROOT
ATOM      1  CD  ARG d   1      -2.365  -3.193  -0.557  0.00  0.00     0.138 C 
ENDROOT
BRANCH   1   2
ATOM      2  CG  ARG d   1      -2.735  -4.170   0.559  0.00  0.00     0.023 C 
BRANCH   2   3
ATOM      3  CB  ARG d   1      -1.660  -4.132   1.650  0.00  0.00     0.044 C 
BRANCH   3   4
ATOM      4  CA  ARG d   1      -1.505  -5.526   2.273  0.00  0.00     0.278 C 
BRANCH   4   5
ATOM      5  N   ARG d   1      -1.746  -5.447   3.744  0.00  0.00     0.089 N 
ATOM      6  H1  ARG d   1      -1.643  -6.374   4.156  0.00  0.00     0.313 HD
ATOM      7  H2  ARG d   1      -2.691  -5.102   3.916  0.00  0.00     0.313 HD
ENDBRANCH   4   5
BRANCH   4   8
ATOM      8  C   ARG d   1      -0.088  -6.053   2.014  0.00  0.00     0.266 C 
ATOM      9  O   ARG d   1       0.081  -7.138   1.494  0.00  0.00    -0.305 OA
ENDBRANCH   4   8
ENDBRANCH   3   4
ENDBRANCH   2   3
ENDBRANCH   1   2
BRANCH   1  10
ATOM     10  NE  ARG d   1      -3.604  -2.749  -1.257  0.00  0.00    -0.227 N 
ATOM     11  CZ  ARG d   1      -3.622  -2.641  -2.561  0.00  0.00     0.665 C 
ATOM     12  NH1 ARG d   1      -2.604  -2.116  -3.193  0.00  0.00    -0.235 N 
ATOM     13  NH2 ARG d   1      -4.658  -3.065  -3.234  0.00  0.00    -0.235 N 
ATOM     14 1HH1 ARG d   1      -1.822  -1.796  -2.687  0.00  0.00     0.174 HD
ATOM     15 2HH1 ARG d   1      -2.619  -2.041  -4.175  0.00  0.00     0.174 HD
ATOM     16 1HH2 ARG d   1      -5.425  -3.460  -2.760  0.00  0.00     0.174 HD
ATOM     17 2HH2 ARG d   1      -4.672  -2.989  -4.215  0.00  0.00     0.174 HD
ATOM     18  HE  ARG d   1      -4.412  -2.536  -0.736  0.00  0.00     0.177 HD
ENDBRANCH   1  10
TORSDOF 6
