@<TRIPOS>MOLECULE
*****
 26 25 0 0 0
SMALL
GASTEIGER
****
Coordinates from PDB:1AKX:A:47 Model:1 without hydrogens
@<TRIPOS>ATOM
      1 N          -1.7460   -5.4470    3.7440 N.3     1  ARG1       -0.3215
      2 CA         -1.5050   -5.5260    2.2730 C.3     1  ARG1        0.0610
      3 C          -0.0880   -6.0530    2.0140 C.2     1  ARG1        0.1369
      4 O           0.0810   -7.1380    1.4940 O.2     1  ARG1       -0.2994
      5 CB         -1.6600   -4.1320    1.6500 C.3     1  ARG1       -0.0283
      6 CG         -2.7350   -4.1700    0.5590 C.3     1  ARG1       -0.0204
      7 CD         -2.3650   -3.1930   -0.5570 C.3     1  ARG1        0.0646
      8 NE         -3.6040   -2.7490   -1.2570 N.pl3   1  ARG1       -0.2787
      9 CZ         -3.6220   -2.6410   -2.5610 C.cat   1  ARG1        0.3410
     10 NH1        -2.6040   -2.1160   -3.1930 N.pl3   1  ARG1       -0.2919
     11 NH2        -4.6580   -3.0650   -3.2340 N.pl3   1  ARG1       -0.2919
     12 H1         -1.6425   -6.3744    4.1558 H       1  ARG1        0.1188
     13 H2         -2.6905   -5.1022    3.9158 H       1  ARG1        0.1188
     14 HA         -2.2171   -6.1910    1.8308 H       1  ARG1        0.0534
     15 H           0.7281   -5.4816    2.2835 H       1  ARG1        0.1043
     16 HB1        -0.7280   -3.8289    1.2205 H       1  ARG1        0.0285
     17 HB2        -1.9498   -3.4353    2.4086 H       1  ARG1        0.0285
     18 HG1        -3.6788   -3.8909    0.9787 H       1  ARG1        0.0296
     19 HG2        -2.8009   -5.1600    0.1583 H       1  ARG1        0.0296
     20 HD1        -1.7149   -3.6778   -1.2550 H       1  ARG1        0.0655
     21 HD2        -1.8672   -2.3436   -0.1380 H       1  ARG1        0.0655
     22 HE         -4.4119   -2.5362   -0.7362 H       1  ARG1        0.2578
     23 HH11       -1.8224   -1.7960   -2.6871 H       1  ARG1        0.2545
     24 HH12       -2.6195   -2.0409   -4.1745 H       1  ARG1        0.2545
     25 HH21       -5.4249   -3.4603   -2.7598 H       1  ARG1        0.2545
     26 HH22       -4.6720   -2.9893   -4.2155 H       1  ARG1        0.2545
@<TRIPOS>BOND
     1     1     2    1
     2     1    12    1
     3     1    13    1
     4     2     3    1
     5     2     5    1
     6     2    14    1
     7     3     4    2
     8     3    15    1
     9     5     6    1
    10     5    16    1
    11     5    17    1
    12     6     7    1
    13     6    18    1
    14     6    19    1
    15     7     8    1
    16     7    20    1
    17     7    21    1
    18     8     9    1
    19     8    22    1
    20     9    10    1
    21     9    11    2
    22    10    23    1
    23    10    24    1
    24    11    25    1
    25    11    26    1
