3GX3_SAH_A_301
 OpenBabel10091713573D
Coordinates from PDB:3GX3:A:301 Model:1 without hydrogens
 26 28  0  0  0  0  0  0  0  0999 V2000
   48.8470   58.4550   28.7080 N   0  0  0  0  0  0  0  0  0  0  0  0
   48.4060   57.2860   27.9420 C   0  0  1  0  0  0  0  0  0  0  0  0
   48.4570   55.9560   28.7050 C   0  0  0  0  0  0  0  0  0  0  0  0
   49.7430   55.4720   29.3520 C   0  0  0  0  0  0  0  0  0  0  0  0
   49.6080   53.6740   29.4810 S   0  0  0  0  0  0  0  0  0  0  0  0
   46.9950   57.4110   27.3630 C   0  0  0  0  0  0  0  0  0  0  0  0
   46.5850   56.5090   26.6320 O   0  0  0  0  0  0  0  0  0  0  0  0
   46.2490   58.3670   27.6090 O   0  0  0  0  0  0  0  0  0  0  0  0
   48.2250   53.9600   30.6110 C   0  0  0  0  0  0  0  0  0  0  0  0
   48.6350   54.1870   32.0700 C   0  0  1  0  0  0  0  0  0  0  0  0
   49.4780   55.3310   32.2480 O   0  0  0  0  0  0  0  0  0  0  0  0
   47.4110   54.3910   32.9510 C   0  0  1  0  0  0  0  0  0  0  0  0
   46.9700   53.1730   33.5090 O   0  0  0  0  0  0  0  0  0  0  0  0
   47.8580   55.4040   33.9970 C   0  0  1  0  0  0  0  0  0  0  0  0
   48.3740   54.7700   35.1500 O   0  0  0  0  0  0  0  0  0  0  0  0
   49.0020   56.1310   33.3180 C   0  0  2  0  0  0  0  0  0  0  0  0
   48.6080   57.4770   32.8410 N   0  0  0  0  0  0  0  0  0  0  0  0
   49.4190   58.5880   32.7630 C   0  0  0  0  0  0  0  0  0  0  0  0
   48.6840   59.6340   32.3080 N   0  0  0  0  0  0  0  0  0  0  0  0
   47.4250   59.1980   32.0800 C   0  0  0  0  0  0  0  0  0  0  0  0
   46.2900   59.8290   31.6110 C   0  0  0  0  0  0  0  0  0  0  0  0
   46.3260   61.1080   31.2910 N   0  0  0  0  0  0  0  0  0  0  0  0
   45.1060   59.1460   31.4880 N   0  0  0  0  0  0  0  0  0  0  0  0
   45.0620   57.8190   31.8340 C   0  0  0  0  0  0  0  0  0  0  0  0
   46.2030   57.1870   32.2820 N   0  0  0  0  0  0  0  0  0  0  0  0
   47.3600   57.8580   32.4220 C   0  0  0  0  0  0  0  0  0  0  0  0
  2  1  1  1  0  0  0
  2  3  1  0  0  0  0
  2  6  1  0  0  0  0
  3  4  1  0  0  0  0
  4  5  1  0  0  0  0
  5  9  1  0  0  0  0
  6  7  2  0  0  0  0
  6  8  1  0  0  0  0
 10  9  1  6  0  0  0
 10 11  1  0  0  0  0
 10 12  1  0  0  0  0
 11 16  1  0  0  0  0
 12 13  1  1  0  0  0
 12 14  1  0  0  0  0
 14 15  1  1  0  0  0
 14 16  1  0  0  0  0
 16 17  1  6  0  0  0
 17 18  1  0  0  0  0
 17 26  1  0  0  0  0
 18 19  2  0  0  0  0
 19 20  1  0  0  0  0
 20 21  1  0  0  0  0
 20 26  2  0  0  0  0
 21 22  1  0  0  0  0
 21 23  2  0  0  0  0
 23 24  1  0  0  0  0
 24 25  2  0  0  0  0
 25 26  1  0  0  0  0
A    1
N
A    2
CA
A    3
CB
A    4
CG
A    5
SD
A    6
C
A    7
O
A    8
OXT
A    9
C5'
A   10
C4'
A   11
O4'
A   12
C3'
A   13
O3'
A   14
C2'
A   15
O2'
A   16
C1'
A   17
N9
A   18
C8
A   19
N7
A   20
C5
A   21
C6
A   22
N6
A   23
N1
A   24
C2
A   25
N3
A   26
C4
M  END
>  <InstanceId>
3GX3_SAH_A_301

>  <ChemCompId>
SAH

>  <PdbId>
3GX3

>  <ChainId>
A

>  <ResidueNumber>
301

>  <InsertionCode>


>  <Model>
1

>  <AltIds>


>  <MissingHeavyAtoms>
0

>  <ObservedFormula>
C14 N6 O5 S

>  <Name>
S-ADENOSYL-L-HOMOCYSTEINE

>  <SystematicName>
(2S)-2-amino-4-[[(2S,3S,4R,5R)-5-(6-aminopurin-9-yl)-3,4-dihydroxy-oxolan-2-yl]methylsulfanyl]butanoic acid

>  <Synonyms>


>  <Type>
L-PEPTIDE LINKING

>  <Formula>
C14 H20 N6 O5 S

>  <MolecularWeight>
384.411

>  <ModifiedDate>
2011-06-04

>  <Parent>
CYS

>  <OneLetterCode>
C

>  <SubcomponentList>


>  <AmbiguousFlag>
N

>  <InChI>
InChI=1S/C14H20N6O5S/c15-6(14(23)24)1-2-26-3-7-9(21)10(22)13(25-7)20-5-19-8-11(16)17-4-18-12(8)20/h4-7,9-10,13,21-22H,1-3,15H2,(H,23,24)(H2,16,17,18)/t6-,7+,9+,10+,13+/m0/s1

>  <InChIKey>
ZJUKTBDSGOFHSH-WFMPWKQPSA-N

>  <SMILES>
c1nc(c2c(n1)n(cn2)[C@H]3[C@@H]([C@@H]([C@H](O3)CSCC[C@@H](C(=O)O)N)O)O)N

$$$$
