3GX3_SAH_A_301
 OpenBabel10091713573D
Coordinates from PDB:3GX3:A:301 Model:1 without hydrogens
 46 48  0  0  1  0  0  0  0  0999 V2000
   48.8470   58.4550   28.7080 N   0  0  0  0  0  0  0  0  0  0  0  0
   48.4060   57.2860   27.9420 C   0  0  1  0  0  0  0  0  0  0  0  0
   48.4570   55.9560   28.7050 C   0  0  0  0  0  0  0  0  0  0  0  0
   49.7430   55.4720   29.3520 C   0  0  0  0  0  0  0  0  0  0  0  0
   49.6080   53.6740   29.4810 S   0  0  0  0  0  0  0  0  0  0  0  0
   46.9950   57.4110   27.3630 C   0  0  0  0  0  0  0  0  0  0  0  0
   46.5850   56.5090   26.6320 O   0  0  0  0  0  0  0  0  0  0  0  0
   46.2490   58.3670   27.6090 O   0  0  0  0  0  0  0  0  0  0  0  0
   48.2250   53.9600   30.6110 C   0  0  0  0  0  0  0  0  0  0  0  0
   48.6350   54.1870   32.0700 C   0  0  1  0  0  0  0  0  0  0  0  0
   49.4780   55.3310   32.2480 O   0  0  0  0  0  0  0  0  0  0  0  0
   47.4110   54.3910   32.9510 C   0  0  1  0  0  0  0  0  0  0  0  0
   46.9700   53.1730   33.5090 O   0  0  0  0  0  0  0  0  0  0  0  0
   47.8580   55.4040   33.9970 C   0  0  1  0  0  0  0  0  0  0  0  0
   48.3740   54.7700   35.1500 O   0  0  0  0  0  0  0  0  0  0  0  0
   49.0020   56.1310   33.3180 C   0  0  2  0  0  0  0  0  0  0  0  0
   48.6080   57.4770   32.8410 N   0  0  0  0  0  0  0  0  0  0  0  0
   49.4190   58.5880   32.7630 C   0  0  0  0  0  0  0  0  0  0  0  0
   48.6840   59.6340   32.3080 N   0  0  0  0  0  0  0  0  0  0  0  0
   47.4250   59.1980   32.0800 C   0  0  0  0  0  0  0  0  0  0  0  0
   46.2900   59.8290   31.6110 C   0  0  0  0  0  0  0  0  0  0  0  0
   46.3260   61.1080   31.2910 N   0  0  0  0  0  0  0  0  0  0  0  0
   45.1060   59.1460   31.4880 N   0  0  0  0  0  0  0  0  0  0  0  0
   45.0620   57.8190   31.8340 C   0  0  0  0  0  0  0  0  0  0  0  0
   46.2030   57.1870   32.2820 N   0  0  0  0  0  0  0  0  0  0  0  0
   47.3600   57.8580   32.4220 C   0  0  0  0  0  0  0  0  0  0  0  0
   49.7914   58.2952   29.0587 H   0  0  0  0  0  0  0  0  0  0  0  0
   48.2137   58.6056   29.4933 H   0  0  0  0  0  0  0  0  0  0  0  0
   49.1288   57.2707   27.1531 H   0  0  0  0  0  0  0  0  0  0  0  0
   48.1611   55.1965   28.0118 H   0  0  0  0  0  0  0  0  0  0  0  0
   47.8270   56.1455   29.5488 H   0  0  0  0  0  0  0  0  0  0  0  0
   49.8533   55.9050   30.3242 H   0  0  0  0  0  0  0  0  0  0  0  0
   50.5974   55.7552   28.7736 H   0  0  0  0  0  0  0  0  0  0  0  0
   46.5453   59.0619   28.1634 H   0  0  0  0  0  0  0  0  0  0  0  0
   47.5805   53.1067   30.5736 H   0  0  0  0  0  0  0  0  0  0  0  0
   47.7461   54.8597   30.2853 H   0  0  0  0  0  0  0  0  0  0  0  0
   49.1767   53.3074   32.3490 H   0  0  0  0  0  0  0  0  0  0  0  0
   46.5626   54.7504   32.4070 H   0  0  0  0  0  0  0  0  0  0  0  0
   47.6882   52.7752   34.0256 H   0  0  0  0  0  0  0  0  0  0  0  0
   47.0463   56.0269   34.3102 H   0  0  0  0  0  0  0  0  0  0  0  0
   49.1144   54.1957   34.8992 H   0  0  0  0  0  0  0  0  0  0  0  0
   49.7822   56.2848   34.0339 H   0  0  0  0  0  0  0  0  0  0  0  0
   50.4205   58.6195   33.0099 H   0  0  0  0  0  0  0  0  0  0  0  0
   47.1673   61.6126   31.3735 H   0  0  0  0  0  0  0  0  0  0  0  0
   45.5115   61.5581   30.9697 H   0  0  0  0  0  0  0  0  0  0  0  0
   44.1763   57.2946   31.7591 H   0  0  0  0  0  0  0  0  0  0  0  0
  1  2  1  0  0  0  0
  1 27  1  0  0  0  0
  1 28  1  0  0  0  0
  2  3  1  0  0  0  0
  2  6  1  0  0  0  0
  2 29  1  6  0  0  0
  3  4  1  0  0  0  0
  3 30  1  0  0  0  0
  3 31  1  0  0  0  0
  4  5  1  0  0  0  0
  4 32  1  0  0  0  0
  4 33  1  0  0  0  0
  5  9  1  0  0  0  0
  6  7  2  0  0  0  0
  6  8  1  0  0  0  0
  8 34  1  0  0  0  0
  9 10  1  0  0  0  0
  9 35  1  0  0  0  0
  9 36  1  0  0  0  0
 10 11  1  0  0  0  0
 10 12  1  0  0  0  0
 10 37  1  1  0  0  0
 11 16  1  0  0  0  0
 12 13  1  0  0  0  0
 12 14  1  0  0  0  0
 12 38  1  6  0  0  0
 13 39  1  0  0  0  0
 14 15  1  0  0  0  0
 14 16  1  0  0  0  0
 14 40  1  1  0  0  0
 15 41  1  0  0  0  0
 16 17  1  0  0  0  0
 16 42  1  1  0  0  0
 17 18  1  0  0  0  0
 17 26  1  0  0  0  0
 18 19  2  0  0  0  0
 18 43  1  0  0  0  0
 19 20  1  0  0  0  0
 20 21  2  0  0  0  0
 20 26  1  0  0  0  0
 21 22  1  0  0  0  0
 21 23  1  0  0  0  0
 22 44  1  0  0  0  0
 22 45  1  0  0  0  0
 23 24  2  0  0  0  0
 24 25  1  0  0  0  0
 24 46  1  0  0  0  0
 25 26  2  0  0  0  0
M  END
$$$$
