REMARK  7 active torsions:
REMARK  status: ('A' for Active; 'I' for Inactive)
REMARK    1  A    between atoms: C1_2  and  C2_3 
REMARK    2  A    between atoms: C1_2  and  C4_6 
REMARK    3  A    between atoms: C2_3  and  C3_4 
REMARK    4  A    between atoms: C3_4  and  S1_5 
REMARK    5  A    between atoms: S1_5  and  C5_9 
REMARK    6  A    between atoms: C6_10  and  C5_9 
REMARK    7  A    between atoms: C9_16  and  N2_17 
ROOT
ATOM      1  C6  <1> d          48.635  54.187  32.070  0.00  0.00     0.161 C 
ATOM      2  O3  <1> d          49.478  55.331  32.248  0.00  0.00    -0.333 OA
ATOM      3  C7  <1> d          47.411  54.391  32.951  0.00  0.00     0.215 C 
ATOM      4  O4  <1> d          46.970  53.173  33.509  0.00  0.00    -0.218 OA
ATOM      5  C8  <1> d          47.858  55.404  33.997  0.00  0.00     0.234 C 
ATOM      6  O5  <1> d          48.374  54.770  35.150  0.00  0.00    -0.216 OA
ATOM      7  C9  <1> d          49.002  56.131  33.318  0.00  0.00     0.241 C 
ENDROOT
BRANCH   7   8
ATOM      8  N2  <1> d          48.608  57.477  32.841  0.00  0.00    -0.270 N 
ATOM      9  C10 <1> d          49.419  58.588  32.763  0.00  0.00     0.182 A 
ATOM     10  N3  <1> d          48.684  59.634  32.308  0.00  0.00    -0.219 NA
ATOM     11  C11 <1> d          47.425  59.198  32.080  0.00  0.00     0.155 A 
ATOM     12  C12 <1> d          46.290  59.829  31.611  0.00  0.00     0.206 A 
ATOM     13  C14 <1> d          47.360  57.858  32.422  0.00  0.00     0.170 A 
ATOM     14  N4  <1> d          46.326  61.108  31.291  0.00  0.00    -0.125 N 
ATOM     15  N5  <1> d          45.106  59.146  31.488  0.00  0.00    -0.202 NA
ATOM     16  C13 <1> d          45.062  57.819  31.834  0.00  0.00     0.202 A 
ATOM     17  N6  <1> d          46.203  57.187  32.282  0.00  0.00    -0.205 NA
ENDBRANCH   7   8
BRANCH   1  18
ATOM     18  C5  <1> d          48.225  53.960  30.611  0.00  0.00     0.090 C 
BRANCH  18  19
ATOM     19  S1  <1> d          49.608  53.674  29.481  0.00  0.00    -0.138 SA
BRANCH  19  20
ATOM     20  C3  <1> d          49.743  55.472  29.352  0.00  0.00     0.060 C 
BRANCH  20  21
ATOM     21  C2  <1> d          48.457  55.956  28.705  0.00  0.00     0.062 C 
BRANCH  21  22
ATOM     22  C1  <1> d          48.406  57.286  27.942  0.00  0.00     0.388 C 
ATOM     23  N1  <1> d          48.847  58.455  28.708  0.00  0.00     0.628 N 
BRANCH  22  24
ATOM     24  C4  <1> d          46.995  57.411  27.363  0.00  0.00     0.224 C 
ATOM     25  O1  <1> d          46.585  56.509  26.632  0.00  0.00    -0.646 OA
ATOM     26  O2  <1> d          46.249  58.367  27.609  0.00  0.00    -0.646 OA
ENDBRANCH  22  24
ENDBRANCH  21  22
ENDBRANCH  20  21
ENDBRANCH  19  20
ENDBRANCH  18  19
ENDBRANCH   1  18
TORSDOF 7
