@<TRIPOS>MOLECULE
3GX3_SAH_A_301
 26 28 0 0 0
SMALL
GASTEIGER
****
Coordinates from PDB:3GX3:A:301 Model:1 without hydrogens
@<TRIPOS>ATOM
      1 N1         48.8470   58.4550   28.7080 N.3     1  <1>        -0.1208
      2 C1         48.4060   57.2860   27.9420 C.3     1  <1>         0.1952
      3 C2         48.4570   55.9560   28.7050 C.3     1  <1>         0.0422
      4 C3         49.7430   55.4720   29.3520 C.3     1  <1>         0.0597
      5 S1         49.6080   53.6740   29.4810 S.3     1  <1>        -0.1375
      6 C4         46.9950   57.4110   27.3630 C.2     1  <1>         0.3819
      7 O1         46.5850   56.5090   26.6320 O.co2   1  <1>        -0.2441
      8 O2         46.2490   58.3670   27.6090 O.co2   1  <1>        -0.2441
      9 C5         48.2250   53.9600   30.6110 C.3     1  <1>         0.0898
     10 C6         48.6350   54.1870   32.0700 C.3     1  <1>         0.1610
     11 O3         49.4780   55.3310   32.2480 O.3     1  <1>        -0.3323
     12 C7         47.4110   54.3910   32.9510 C.3     1  <1>         0.2144
     13 O4         46.9700   53.1730   33.5090 O.3     1  <1>        -0.2176
     14 C8         47.8580   55.4040   33.9970 C.3     1  <1>         0.2337
     15 O5         48.3740   54.7700   35.1500 O.3     1  <1>        -0.2155
     16 C9         49.0020   56.1310   33.3180 C.3     1  <1>         0.2409
     17 N2         48.6080   57.4770   32.8410 N.ar    1  <1>        -0.2693
     18 C10        49.4190   58.5880   32.7630 C.ar    1  <1>         0.1816
     19 N3         48.6840   59.6340   32.3080 N.ar    1  <1>        -0.2193
     20 C11        47.4250   59.1980   32.0800 C.ar    1  <1>         0.1518
     21 C12        46.2900   59.8290   31.6110 C.ar    1  <1>         0.1919
     22 N4         46.3260   61.1080   31.2910 N.pl3   1  <1>        -0.1054
     23 N5         45.1060   59.1460   31.4880 N.ar    1  <1>        -0.2040
     24 C13        45.0620   57.8190   31.8340 C.ar    1  <1>         0.2016
     25 N6         46.2030   57.1870   32.2820 N.ar    1  <1>        -0.2048
     26 C14        47.3600   57.8580   32.4220 C.ar    1  <1>         0.1692
@<TRIPOS>BOND
     1     2     1    1
     2     2     3    1
     3     2     6    1
     4     3     4    1
     5     4     5    1
     6     5     9    1
     7     6     7   ar
     8     6     8   ar
     9    10     9    1
    10    10    11    1
    11    10    12    1
    12    11    16    1
    13    12    13    1
    14    12    14    1
    15    14    15    1
    16    14    16    1
    17    16    17    1
    18    17    18   ar
    19    17    26   ar
    20    18    19   ar
    21    19    20   ar
    22    20    21   ar
    23    20    26   ar
    24    21    22    1
    25    21    23   ar
    26    23    24   ar
    27    24    25   ar
    28    25    26   ar
