@<TRIPOS>MOLECULE
ligand
 13 14 0 0 0
SMALL
GASTEIGER

@<TRIPOS>ATOM
      1 N          12.4790   43.7590   65.0810 N.pl3   1  UNL1       -0.0859
      2 N          10.9900   42.7060   66.5120 N.ar    1  UNL1       -0.1931
      3 C          12.0180   43.5510   66.3110 C.ar    1  UNL1        0.2605
      4 N          12.6160   44.2040   67.3880 N.ar    1  UNL1       -0.1711
      5 C          12.1150   43.9690   68.6700 C.ar    1  UNL1        0.2993
      6 C          11.0420   43.1020   68.8490 C.ar    1  UNL1        0.1566
      7 O          12.6270   44.5250   69.6410 O.2     1  UNL1       -0.2636
      8 N          10.5650   42.8330   70.1460 N.pl3   1  UNL1       -0.2305
      9 C           9.3870   41.9550   70.3970 C.3     1  UNL1        0.1144
     10 C           9.2800   40.9170   69.2670 C.3     1  UNL1        0.1353
     11 C          10.5030   42.4620   67.7420 C.ar    1  UNL1        0.1703
     12 N           9.4390   41.5700   67.9220 N.pl3   1  UNL1       -0.2172
     13 C           8.1050   42.8400   70.4250 C.3     1  UNL1        0.0252
@<TRIPOS>BOND
     1     2     3   ar
     2     2    11   ar
     3     1     3    1
     4     3     4   ar
     5     4     5   ar
     6     5     6   ar
     7     5     7    2
     8     6     8    1
     9     6    11   ar
    10     8     9    1
    11     9    10    1
    12     9    13    1
    13    10    12    1
    14    11    12    1
