@<TRIPOS>MOLECULE
1G4Q_MPD_A_25
 22 21 0 0 0
SMALL
GASTEIGER

@<TRIPOS>ATOM
      1 C           0.8889    0.0155   -0.0390 C.3     1  UNL1       -0.0363
      2 C           2.4142   -0.0847    0.1003 C.3     1  UNL1        0.0629
      3 O           2.9266    1.2372    0.2939 O.3     1  UNL1       -0.3890
      4 C           2.7542   -0.9191    1.3369 C.3     1  UNL1       -0.0363
      5 C           2.9998   -0.6508   -1.2109 C.3     1  UNL1        0.0013
      6 C           4.5297   -0.7288   -1.3018 C.3     1  UNL1        0.0550
      7 H           4.9809    0.2556   -1.1330 H       1  UNL1        0.0591
      8 O           5.0501   -1.6472   -0.3452 O.3     1  UNL1       -0.3920
      9 C           4.9577   -1.2426   -2.6725 C.3     1  UNL1       -0.0389
     10 H           0.4381    0.4487    0.8614 H       1  UNL1        0.0257
     11 H           0.4367   -0.9670   -0.2113 H       1  UNL1        0.0257
     12 H           0.6132    0.6769   -0.8682 H       1  UNL1        0.0257
     13 H           2.5046    1.6047    1.0912 H       1  UNL1        0.2101
     14 H           2.1500   -0.6051    2.1963 H       1  UNL1        0.0257
     15 H           3.7925   -0.7750    1.6490 H       1  UNL1        0.0257
     16 H           2.5705   -1.9847    1.1672 H       1  UNL1        0.0257
     17 H           2.6604   -0.0123   -2.0386 H       1  UNL1        0.0318
     18 H           2.5779   -1.6502   -1.3793 H       1  UNL1        0.0318
     19 H           5.5009   -1.1159    0.3345 H       1  UNL1        0.2098
     20 H           4.6272   -0.5763   -3.4742 H       1  UNL1        0.0254
     21 H           4.5506   -2.2430   -2.8600 H       1  UNL1        0.0254
     22 H           6.0478   -1.3379   -2.7229 H       1  UNL1        0.0254
@<TRIPOS>BOND
     1     1     2    1
     2     1    10    1
     3     1    11    1
     4     1    12    1
     5     2     3    1
     6     2     4    1
     7     2     5    1
     8     3    13    1
     9     4    14    1
    10     4    15    1
    11     4    16    1
    12     5     6    1
    13     5    17    1
    14     5    18    1
    15     6     7    1
    16     6     8    1
    17     6     9    1
    18     8    19    1
    19     9    20    1
    20     9    21    1
    21     9    22    1
