REMARK  4 active torsions:
REMARK  status: ('A' for Active; 'I' for Inactive)
REMARK    1  A    between atoms: C_2  and  O_3 
REMARK    2  A    between atoms: C_2  and  C_5 
REMARK    3  A    between atoms: C_5  and  C_6 
REMARK    4  A    between atoms: C_6  and  O_7 
ROOT
ATOM      1  C   UNL d   1       0.889   0.015  -0.039  0.00  0.00     0.045 C 
ATOM      2  C   UNL d   1       2.414  -0.085   0.100  0.00  0.00     0.053 C 
ATOM      3  C   UNL d   1       2.754  -0.919   1.337  0.00  0.00     0.045 C 
ENDROOT
BRANCH   2   4
ATOM      4  O   UNL d   1       2.927   1.237   0.294  0.00  0.00    -0.391 OA
ATOM      5  H   UNL d   1       2.505   1.605   1.091  0.00  0.00     0.210 HD
ENDBRANCH   2   4
BRANCH   2   6
ATOM      6  C   UNL d   1       3.000  -0.651  -1.211  0.00  0.00     0.068 C 
BRANCH   6   7
ATOM      7  C   UNL d   1       4.530  -0.729  -1.302  0.00  0.00     0.117 C 
ATOM      8  C   UNL d   1       4.958  -1.243  -2.672  0.00  0.00     0.039 C 
BRANCH   7   9
ATOM      9  O   UNL d   1       5.050  -1.647  -0.345  0.00  0.00    -0.396 OA
ATOM     10  H   UNL d   1       5.501  -1.116   0.335  0.00  0.00     0.210 HD
ENDBRANCH   7   9
ENDBRANCH   6   7
ENDBRANCH   2   6
TORSDOF 4
