@<TRIPOS>MOLECULE
3DVV_RIO_A_27
 65 67 0 0 0
SMALL
GASTEIGER

@<TRIPOS>ATOM
      1 O           4.1132   -4.0525   -4.6188 O.3     1  UNL1       -0.3924
      2 C           3.1304   -3.2076   -5.2075 C.3     1  UNL1        0.0730
      3 C           1.7670   -3.6512   -4.7198 C.3     1  UNL1        0.1131
      4 H           1.6730   -4.7448   -4.7641 H       1  UNL1        0.0647
      5 O           1.6723   -3.2620   -3.3437 O.3     1  UNL1       -0.3405
      6 C           0.3021   -2.9872   -3.0551 C.3     1  UNL1        0.1884
      7 H          -0.0184   -3.8145   -2.4122 H       1  UNL1        0.0938
      8 O           0.1213   -1.8774   -2.2218 O.3     1  UNL1       -0.3402
      9 C           0.3486   -0.4923   -2.4883 C.3     1  UNL1        0.1166
     10 H          -0.3937   -0.1406   -3.2203 H       1  UNL1        0.0650
     11 C           1.7818   -0.1511   -2.9386 C.3     1  UNL1        0.0990
     12 H           2.4179   -1.0348   -2.8572 H       1  UNL1        0.0636
     13 O           1.7869    0.1777   -4.3305 O.3     1  UNL1       -0.3876
     14 C           2.4495    1.0106   -2.1785 C.3     1  UNL1        0.0351
     15 H           3.1730    1.4996   -2.8461 H       1  UNL1        0.0485
     16 N           3.2401    0.4744   -1.0643 N.3     1  UNL1       -0.3250
     17 C           1.4498    2.0954   -1.7473 C.3     1  UNL1       -0.0175
     18 C           0.2714    1.5790   -0.9017 C.3     1  UNL1        0.0355
     19 H          -0.6121    2.1667   -1.1777 H       1  UNL1        0.0485
     20 N           0.5393    1.8935    0.5167 N.3     1  UNL1       -0.3250
     21 C           0.0017    0.0780   -1.0877 C.3     1  UNL1        0.1055
     22 H           0.6146   -0.4705   -0.3634 H       1  UNL1        0.0639
     23 O          -1.3262   -0.4180   -0.8425 O.3     1  UNL1       -0.3422
     24 C          -2.2721    0.4044   -0.1512 C.3     1  UNL1        0.1776
     25 H          -3.3283    0.2611    0.1937 H       1  UNL1        0.0927
     26 O          -2.1507   -0.3840    1.0982 O.3     1  UNL1       -0.3425
     27 C          -2.8391   -1.8656    0.9638 C.3     1  UNL1        0.1022
     28 H          -3.6588   -1.8035    1.6966 H       1  UNL1        0.0636
     29 C          -1.7902   -2.8856    1.4778 C.3     1  UNL1        0.0222
     30 N          -2.2978   -3.7645    2.5340 N.3     1  UNL1       -0.3276
     31 C          -3.4850   -2.0714   -0.5217 C.3     1  UNL1        0.1100
     32 H          -3.7869   -1.1441   -0.0969 H       1  UNL1        0.0646
     33 O          -2.3040   -2.4691   -1.2267 O.3     1  UNL1       -0.3866
     34 C          -4.0440   -1.0375   -1.6308 C.3     1  UNL1        0.1033
     35 H          -5.1102   -0.8304   -1.4559 H       1  UNL1        0.0637
     36 O          -3.9536   -1.5413   -2.9632 O.3     1  UNL1       -0.3874
     37 C          -3.1699    0.4711   -1.4945 C.3     1  UNL1        0.0853
     38 H          -2.5381    0.5525   -2.3879 H       1  UNL1        0.0535
     39 N          -4.0768    1.6145   -1.5886 N.3     1  UNL1       -0.3211
     40 C          -0.4982   -3.0789   -4.3482 C.3     1  UNL1        0.1341
     41 H          -1.3131   -2.3559   -4.4506 H       1  UNL1        0.0671
     42 O          -1.0517   -4.4013   -4.3985 O.3     1  UNL1       -0.3841
     43 C           0.5904   -2.9540   -5.3978 C.3     1  UNL1        0.1141
     44 H           0.8121   -1.9018   -5.5912 H       1  UNL1        0.0648
     45 O           0.2313   -3.5579   -6.6304 O.3     1  UNL1       -0.3864
     46 H           4.6161   -4.4661   -5.3405 H       1  UNL1        0.2095
     47 H           3.3516   -2.1803   -4.9010 H       1  UNL1        0.0584
     48 H           3.2034   -3.2693   -6.2966 H       1  UNL1        0.0584
     49 H           1.0042    0.7387   -4.5265 H       1  UNL1        0.2100
     50 H           3.8049    1.2129   -0.6470 H       1  UNL1        0.1185
     51 H           2.6344    0.1215   -0.3289 H       1  UNL1        0.1185
     52 H           1.0339    2.5546   -2.6547 H       1  UNL1        0.0297
     53 H           1.9924    2.9029   -1.2333 H       1  UNL1        0.0297
     54 H           1.5447    1.8668    0.6966 H       1  UNL1        0.1185
     55 H           0.1400    1.1790    1.1224 H       1  UNL1        0.1185
     56 H          -1.3673   -3.5111    0.6855 H       1  UNL1        0.0448
     57 H          -0.9420   -2.3408    1.9065 H       1  UNL1        0.0448
     58 H          -2.0381   -4.7318    2.3386 H       1  UNL1        0.1183
     59 H          -3.3152   -3.7473    2.5782 H       1  UNL1        0.1183
     60 H          -2.2541   -3.4265   -1.1860 H       1  UNL1        0.2100
     61 H          -3.5299   -0.8819   -3.5172 H       1  UNL1        0.2100
     62 H          -4.8193    1.5587   -0.8859 H       1  UNL1        0.1187
     63 H          -3.5710    2.4756   -1.4289 H       1  UNL1        0.1187
     64 H          -1.6225   -4.4604   -5.1827 H       1  UNL1        0.2101
     65 H           0.5719   -4.4685   -6.6449 H       1  UNL1        0.2100
@<TRIPOS>BOND
     1     2     1    1
     2     3     2    1
     3     3     4    1
     4     5     3    1
     5     6     5    1
     6     6     7    1
     7     8     6    1
     8     9     8    1
     9     9    10    1
    10    11     9    1
    11    11    12    1
    12    13    11    1
    13    14    11    1
    14    14    15    1
    15    16    14    1
    16    17    14    1
    17    18    17    1
    18    18    19    1
    19    20    18    1
    20    21    18    1
    21    21    22    1
    22    21     9    1
    23    23    21    1
    24    24    23    1
    25    24    25    1
    26    26    24    1
    27    27    26    1
    28    27    28    1
    29    29    27    1
    30    30    29    1
    31    31    27    1
    32    31    32    1
    33    33    31    1
    34    34    31    1
    35    34    35    1
    36    36    34    1
    37    37    34    1
    38    37    38    1
    39    37    24    1
    40    39    37    1
    41    40     6    1
    42    40    41    1
    43    42    40    1
    44    43    40    1
    45    43    44    1
    46    43     3    1
    47    45    43    1
    48     1    46    1
    49     2    47    1
    50     2    48    1
    51    13    49    1
    52    16    50    1
    53    16    51    1
    54    17    52    1
    55    17    53    1
    56    20    54    1
    57    20    55    1
    58    29    56    1
    59    29    57    1
    60    30    58    1
    61    30    59    1
    62    33    60    1
    63    36    61    1
    64    39    62    1
    65    39    63    1
    66    42    64    1
    67    45    65    1
