@<TRIPOS>MOLECULE
1J8G_SPM_A_62
 14 13 0 0 0
SMALL
GASTEIGER
****
Coordinates from PDB:1J8G:A:62 Model:1 without hydrogens
@<TRIPOS>ATOM
      1 N           7.9660   31.8780   21.8350 N.3     1  UNL1       -0.1313
      2 C           8.6980   30.9220   22.7040 C.3     1  UNL1        0.1108
      3 C           8.0240   29.3900   22.6600 C.3     1  UNL1        0.0393
      4 C           8.7090   28.6420   23.7720 C.3     1  UNL1        0.0902
      5 N           8.8180   27.1900   23.4610 N.3     1  UNL1       -0.2180
      6 C           9.2100   26.3380   24.6530 C.3     1  UNL1        0.0887
      7 C          10.5750   26.6650   25.2200 C.3     1  UNL1        0.0203
      8 C          10.8940   25.6100   26.2820 C.3     1  UNL1        0.0203
      9 C          12.1280   26.0230   27.0860 C.3     1  UNL1        0.0887
     10 N          12.4220   25.0090   28.1880 N.3     1  UNL1       -0.2180
     11 C          12.9600   23.7210   27.6270 C.3     1  UNL1        0.0902
     12 C          13.5390   22.8750   28.7460 C.3     1  UNL1        0.0393
     13 C          13.9810   21.5150   28.1160 C.3     1  UNL1        0.1108
     14 N          14.8020   20.8030   29.1150 N.3     1  UNL1       -0.1313
@<TRIPOS>BOND
     1     1     2    1
     2     2     3    1
     3     3     4    1
     4     4     5    1
     5     5     6    1
     6     6     7    1
     7     7     8    1
     8     8     9    1
     9     9    10    1
    10    10    11    1
    11    11    12    1
    12    12    13    1
    13    13    14    1
