1J8G_SPM_A_62
 OpenBabel10091713573D
Coordinates from PDB:1J8G:A:62 Model:1 without hydrogens
 40 39  0  0  0  0  0  0  0  0999 V2000
    7.9660   31.8780   21.8350 N   0  0  0  0  0  0  0  0  0  0  0  0
    8.6980   30.9220   22.7040 C   0  0  0  0  0  0  0  0  0  0  0  0
    8.0240   29.3900   22.6600 C   0  0  0  0  0  0  0  0  0  0  0  0
    8.7090   28.6420   23.7720 C   0  0  0  0  0  0  0  0  0  0  0  0
    8.8180   27.1900   23.4610 N   0  0  0  0  0  0  0  0  0  0  0  0
    9.2100   26.3380   24.6530 C   0  0  0  0  0  0  0  0  0  0  0  0
   10.5750   26.6650   25.2200 C   0  0  0  0  0  0  0  0  0  0  0  0
   10.8940   25.6100   26.2820 C   0  0  0  0  0  0  0  0  0  0  0  0
   12.1280   26.0230   27.0860 C   0  0  0  0  0  0  0  0  0  0  0  0
   12.4220   25.0090   28.1880 N   0  0  0  0  0  0  0  0  0  0  0  0
   12.9600   23.7210   27.6270 C   0  0  0  0  0  0  0  0  0  0  0  0
   13.5390   22.8750   28.7460 C   0  0  0  0  0  0  0  0  0  0  0  0
   13.9810   21.5150   28.1160 C   0  0  0  0  0  0  0  0  0  0  0  0
   14.8020   20.8030   29.1150 N   0  0  0  0  0  0  0  0  0  0  0  0
    8.4080   32.7956   21.8911 H   0  0  0  0  0  0  0  0  0  0  0  0
    6.9973   31.9476   22.1466 H   0  0  0  0  0  0  0  0  0  0  0  0
    8.6723   31.2817   23.7114 H   0  0  0  0  0  0  0  0  0  0  0  0
    9.7029   30.8510   22.3434 H   0  0  0  0  0  0  0  0  0  0  0  0
    8.2129   28.9211   21.7169 H   0  0  0  0  0  0  0  0  0  0  0  0
    6.9609   29.4107   22.7795 H   0  0  0  0  0  0  0  0  0  0  0  0
    8.1450   28.7640   24.6731 H   0  0  0  0  0  0  0  0  0  0  0  0
    9.6965   29.0377   23.8867 H   0  0  0  0  0  0  0  0  0  0  0  0
    9.5222   27.0687   22.7332 H   0  0  0  0  0  0  0  0  0  0  0  0
    9.2088   25.3122   24.3486 H   0  0  0  0  0  0  0  0  0  0  0  0
    8.4973   26.5388   25.4254 H   0  0  0  0  0  0  0  0  0  0  0  0
   10.5631   27.6386   25.6636 H   0  0  0  0  0  0  0  0  0  0  0  0
   11.3159   26.6601   24.4480 H   0  0  0  0  0  0  0  0  0  0  0  0
   11.0826   24.6722   25.8026 H   0  0  0  0  0  0  0  0  0  0  0  0
   10.0596   25.5208   26.9459 H   0  0  0  0  0  0  0  0  0  0  0  0
   11.9535   26.9813   27.5287 H   0  0  0  0  0  0  0  0  0  0  0  0
   12.9689   26.0650   26.4257 H   0  0  0  0  0  0  0  0  0  0  0  0
   11.5597   24.8138   28.6967 H   0  0  0  0  0  0  0  0  0  0  0  0
   13.7264   23.9375   26.9124 H   0  0  0  0  0  0  0  0  0  0  0  0
   12.1659   23.1834   27.1523 H   0  0  0  0  0  0  0  0  0  0  0  0
   12.7979   22.7064   29.4992 H   0  0  0  0  0  0  0  0  0  0  0  0
   14.3700   23.3690   29.2045 H   0  0  0  0  0  0  0  0  0  0  0  0
   14.5564   21.6930   27.2316 H   0  0  0  0  0  0  0  0  0  0  0  0
   13.1256   20.9304   27.8488 H   0  0  0  0  0  0  0  0  0  0  0  0
   15.6119   21.3733   29.3583 H   0  0  0  0  0  0  0  0  0  0  0  0
   15.1166   19.9143   28.7255 H   0  0  0  0  0  0  0  0  0  0  0  0
  1  2  1  0  0  0  0
  1 15  1  0  0  0  0
  1 16  1  0  0  0  0
  2  3  1  0  0  0  0
  2 17  1  0  0  0  0
  2 18  1  0  0  0  0
  3  4  1  0  0  0  0
  3 19  1  0  0  0  0
  3 20  1  0  0  0  0
  4  5  1  0  0  0  0
  4 21  1  0  0  0  0
  4 22  1  0  0  0  0
  5  6  1  0  0  0  0
  5 23  1  0  0  0  0
  6  7  1  0  0  0  0
  6 24  1  0  0  0  0
  6 25  1  0  0  0  0
  7  8  1  0  0  0  0
  7 26  1  0  0  0  0
  7 27  1  0  0  0  0
  8  9  1  0  0  0  0
  8 28  1  0  0  0  0
  8 29  1  0  0  0  0
  9 10  1  0  0  0  0
  9 30  1  0  0  0  0
  9 31  1  0  0  0  0
 10 11  1  0  0  0  0
 10 32  1  0  0  0  0
 11 12  1  0  0  0  0
 11 33  1  0  0  0  0
 11 34  1  0  0  0  0
 12 13  1  0  0  0  0
 12 35  1  0  0  0  0
 12 36  1  0  0  0  0
 13 14  1  0  0  0  0
 13 37  1  0  0  0  0
 13 38  1  0  0  0  0
 14 39  1  0  0  0  0
 14 40  1  0  0  0  0
M  END
$$$$
