@<TRIPOS>MOLECULE
3GOT_A2F_A_91
 11 12 0 0 0
SMALL
GASTEIGER
****
Coordinates from PDB:3GOT:A:91 Model:1 without hydrogens
@<TRIPOS>ATOM
      1 F         -11.6610  -11.7890   10.6260 F       1  UNL1       -0.1610
      2 C         -11.6470  -11.1400    9.4460 C.ar    1  UNL1        0.3129
      3 N         -11.2180  -11.7950    8.3560 N.ar    1  UNL1       -0.1805
      4 N         -12.0600   -9.8650    9.3750 N.ar    1  UNL1       -0.1814
      5 C         -12.0540   -9.2120    8.2030 C.ar    1  UNL1        0.1940
      6 N         -12.3920   -7.9270    8.1480 N.pl3   1  UNL1       -0.1053
      7 C         -11.6260   -9.8720    7.0570 C.ar    1  UNL1        0.1535
      8 C         -11.1990  -11.1880    7.1630 C.ar    1  UNL1        0.1883
      9 N         -11.5020   -9.5210    5.7800 N.ar    1  UNL1       -0.2179
     10 C         -11.0130  -10.5610    5.1090 C.ar    1  UNL1        0.2005
     11 N         -10.8260  -11.5790    5.9480 N.ar    1  UNL1       -0.2031
@<TRIPOS>BOND
     1     2     1    1
     2     2     3   ar
     3     4     2   ar
     4     5     4   ar
     5     5     7   ar
     6     6     5    1
     7     7     8   ar
     8     8     3   ar
     9     9     7   ar
    10     9    10   ar
    11    10    11   ar
    12    11     8   ar
