3GOT_A2F_A_91
 OpenBabel10091713573D
Coordinates from PDB:3GOT:A:91 Model:1 without hydrogens
 15 16  0  0  0  0  0  0  0  0999 V2000
  -11.6610  -11.7890   10.6260 F   0  0  0  0  0  0  0  0  0  0  0  0
  -11.6470  -11.1400    9.4460 C   0  0  0  0  0  0  0  0  0  0  0  0
  -11.2180  -11.7950    8.3560 N   0  0  0  0  0  0  0  0  0  0  0  0
  -12.0600   -9.8650    9.3750 N   0  0  0  0  0  0  0  0  0  0  0  0
  -12.0540   -9.2120    8.2030 C   0  0  0  0  0  0  0  0  0  0  0  0
  -12.3920   -7.9270    8.1480 N   0  0  0  0  0  0  0  0  0  0  0  0
  -11.6260   -9.8720    7.0570 C   0  0  0  0  0  0  0  0  0  0  0  0
  -11.1990  -11.1880    7.1630 C   0  0  0  0  0  0  0  0  0  0  0  0
  -11.5020   -9.5210    5.7800 N   0  0  0  0  0  0  0  0  0  0  0  0
  -11.0130  -10.5610    5.1090 C   0  0  0  0  0  0  0  0  0  0  0  0
  -10.8260  -11.5790    5.9480 N   0  0  0  0  0  0  0  0  0  0  0  0
  -12.6948   -7.4624    8.9615 H   0  0  0  0  0  0  0  0  0  0  0  0
  -12.3395   -7.4403    7.2938 H   0  0  0  0  0  0  0  0  0  0  0  0
  -11.7322   -8.6436    5.3974 H   0  0  0  0  0  0  0  0  0  0  0  0
  -10.8104  -10.5766    4.0972 H   0  0  0  0  0  0  0  0  0  0  0  0
  2  1  1  0  0  0  0
  2  3  1  0  0  0  0
  4  2  2  0  0  0  0
  5  4  1  0  0  0  0
  5  7  2  0  0  0  0
  6  5  1  0  0  0  0
  6 12  1  0  0  0  0
  6 13  1  0  0  0  0
  7  8  1  0  0  0  0
  8  3  2  0  0  0  0
  9  7  1  0  0  0  0
  9 10  1  0  0  0  0
  9 14  1  0  0  0  0
 10 11  2  0  0  0  0
 10 15  1  0  0  0  0
 11  8  1  0  0  0  0
M  END
$$$$
