@<TRIPOS>MOLECULE
3GLP_GOL_A_10
 14 13 0 0 0
SMALL
GASTEIGER

@<TRIPOS>ATOM
      1 C          -1.0851    0.3327   -0.3992 C.3     1  UNL1        0.0723
      2 O          -2.3220   -0.3657   -0.4509 O.3     1  UNL1       -0.3924
      3 C          -0.0350   -0.4802    0.3494 C.3     1  UNL1        0.1012
      4 O           1.1649    0.2938    0.3761 O.3     1  UNL1       -0.3873
      5 C          -0.4432   -0.7873    1.7875 C.3     1  UNL1        0.0723
      6 O           0.4289   -1.7740    2.3273 O.3     1  UNL1       -0.3924
      7 H          -0.7610    0.5208   -1.4286 H       1  UNL1        0.0583
      8 H          -1.2591    1.3002    0.0837 H       1  UNL1        0.0583
      9 H          -2.1651   -1.2027   -0.9218 H       1  UNL1        0.2095
     10 H           0.1694   -1.4095   -0.1983 H       1  UNL1        0.0639
     11 H           1.9055   -0.3277    0.4700 H       1  UNL1        0.2100
     12 H          -0.3973    0.1059    2.4204 H       1  UNL1        0.0583
     13 H          -1.4591   -1.1905    1.8394 H       1  UNL1        0.0583
     14 H           1.3167   -1.3812    2.3792 H       1  UNL1        0.2095
@<TRIPOS>BOND
     1     2     1    1
     2     3     1    1
     3     4     3    1
     4     5     3    1
     5     6     5    1
     6     1     7    1
     7     1     8    1
     8     2     9    1
     9     3    10    1
    10     4    11    1
    11     5    12    1
    12     5    13    1
    13     6    14    1
