REMARK  5 active torsions:
REMARK  status: ('A' for Active; 'I' for Inactive)
REMARK    1  A    between atoms: O_2  and  C_1 
REMARK    2  A    between atoms: C_3  and  C_1 
REMARK    3  A    between atoms: O_4  and  C_3 
REMARK    4  A    between atoms: C_5  and  C_3 
REMARK    5  A    between atoms: O_6  and  C_5 
ROOT
ATOM      1  C   UNL d   1      -0.035  -0.480   0.349  0.00  0.00     0.165 C 
ENDROOT
BRANCH   1   2
ATOM      2  C   UNL d   1      -1.085   0.333  -0.399  0.00  0.00     0.198 C 
BRANCH   2   3
ATOM      3  O   UNL d   1      -2.322  -0.366  -0.451  0.00  0.00    -0.398 OA
ATOM      4  H   UNL d   1      -2.165  -1.203  -0.922  0.00  0.00     0.209 HD
ENDBRANCH   2   3
ENDBRANCH   1   2
BRANCH   1   5
ATOM      5  O   UNL d   1       1.165   0.294   0.376  0.00  0.00    -0.391 OA
ATOM      6  H   UNL d   1       1.905  -0.328   0.470  0.00  0.00     0.210 HD
ENDBRANCH   1   5
BRANCH   1   7
ATOM      7  C   UNL d   1      -0.443  -0.787   1.788  0.00  0.00     0.198 C 
BRANCH   7   8
ATOM      8  O   UNL d   1       0.429  -1.774   2.327  0.00  0.00    -0.398 OA
ATOM      9  H   UNL d   1       1.317  -1.381   2.379  0.00  0.00     0.209 HD
ENDBRANCH   7   8
ENDBRANCH   1   7
TORSDOF 5
