3GLP_GOL_A_10
  1228              3D

 14 13  0  0  0  0  0  0  0  0999 V2000
   -1.0851    0.3327   -0.3992 C   0  0  0  0  0  0  0  0  0  0  0  0
   -2.3220   -0.3657   -0.4509 O   0  0  0  0  0  0  0  0  0  0  0  0
   -0.0350   -0.4802    0.3494 C   0  0  0  0  0  0  0  0  0  0  0  0
    1.1649    0.2938    0.3761 O   0  0  0  0  0  0  0  0  0  0  0  0
   -0.4432   -0.7873    1.7875 C   0  0  0  0  0  0  0  0  0  0  0  0
    0.4289   -1.7740    2.3273 O   0  0  0  0  0  0  0  0  0  0  0  0
   -0.7610    0.5208   -1.4286 H   0  0  0  0  0  0  0  0  0  0  0  0
   -1.2591    1.3002    0.0837 H   0  0  0  0  0  0  0  0  0  0  0  0
   -2.1651   -1.2027   -0.9218 H   0  0  0  0  0  0  0  0  0  0  0  0
    0.1694   -1.4095   -0.1983 H   0  0  0  0  0  0  0  0  0  0  0  0
    1.9055   -0.3277    0.4700 H   0  0  0  0  0  0  0  0  0  0  0  0
   -0.3973    0.1059    2.4204 H   0  0  0  0  0  0  0  0  0  0  0  0
   -1.4591   -1.1905    1.8394 H   0  0  0  0  0  0  0  0  0  0  0  0
    1.3167   -1.3812    2.3792 H   0  0  0  0  0  0  0  0  0  0  0  0
  2  1  1  0  0  0  0
  3  1  1  0  0  0  0
  4  3  1  0  0  0  0
  5  3  1  0  0  0  0
  6  5  1  0  0  0  0
  1  7  1  0  0  0  0
  1  8  1  0  0  0  0
  2  9  1  0  0  0  0
  3 10  1  0  0  0  0
  4 11  1  0  0  0  0
  5 12  1  0  0  0  0
  5 13  1  0  0  0  0
  6 14  1  0  0  0  0
M  END
>  <energy>
8.4590867459102359

$$$$
