@<TRIPOS>MOLECULE
4LVY_LYA_A_101
 37 39 0 0 0
SMALL
GASTEIGER

@<TRIPOS>ATOM
      1 C           3.6983   -3.4710   -0.6051 C.ar    1  UNL1       -0.0470
      2 C           3.6890   -4.5955    0.2333 C.ar    1  UNL1       -0.0578
      3 C           4.8085   -4.9190    1.0006 C.ar    1  UNL1       -0.0494
      4 C           5.9470   -4.1155    0.9244 C.ar    1  UNL1        0.0365
      5 C           5.9741   -2.9907    0.0984 C.ar    1  UNL1       -0.0494
      6 C           4.8511   -2.6738   -0.6637 C.ar    1  UNL1       -0.0578
      7 C           7.0511   -4.3274    1.8738 C.2     1  UNL1        0.2415
      8 O           7.3621   -3.4401    2.6605 O.2     1  UNL1       -0.2704
      9 N           7.6512   -5.5647    1.7949 N.am    1  UNL1       -0.3253
     10 C           2.4537   -3.0593   -1.3562 C.3     1  UNL1       -0.0236
     11 C           1.4230   -2.2869   -0.5206 C.3     1  UNL1       -0.0215
     12 C           1.9265   -1.0160    0.0864 C.ar    1  UNL1       -0.0153
     13 C           2.2590   -0.8395    1.4250 C.ar    1  UNL1        0.0074
     14 N           2.7888    0.4184    1.5896 N.ar    1  UNL1       -0.3468
     15 H           3.0640    0.8253    2.4733 H       1  UNL1        0.1667
     16 C           2.6500    1.0806    0.4147 C.ar    1  UNL1        0.1239
     17 C           2.2502    0.2096   -0.5669 C.ar    1  UNL1        0.0862
     18 C           2.0612    0.7100   -1.9247 C.ar    1  UNL1        0.2840
     19 O           1.5560    0.0134   -2.7974 O.2     1  UNL1       -0.2650
     20 N           2.5253    2.0119   -2.1496 N.ar    1  UNL1       -0.1769
     21 C           3.0090    2.7444   -1.1655 C.ar    1  UNL1        0.1951
     22 N           3.0973    2.3165    0.1531 N.ar    1  UNL1       -0.3136
     23 H           3.5287    2.9036    0.8597 H       1  UNL1        0.1699
     24 N           3.4695    4.0338   -1.3637 N.pl3   1  UNL1       -0.3289
     25 H           2.8157   -5.2407    0.2688 H       1  UNL1        0.0620
     26 H           4.7734   -5.7802    1.6616 H       1  UNL1        0.0625
     27 H           6.8840   -2.4059   -0.0160 H       1  UNL1        0.0625
     28 H           4.8935   -1.8193   -1.3330 H       1  UNL1        0.0620
     29 H           8.4211   -5.7673    2.4283 H       1  UNL1        0.1453
     30 H           7.7628   -6.0072    0.8873 H       1  UNL1        0.1453
     31 H           1.9713   -3.9670   -1.7451 H       1  UNL1        0.0316
     32 H           2.7321   -2.4779   -2.2449 H       1  UNL1        0.0316
     33 H           1.0273   -2.9393    0.2698 H       1  UNL1        0.0317
     34 H           0.5655   -2.0504   -1.1631 H       1  UNL1        0.0317
     35 H           2.1966   -1.5150    2.2670 H       1  UNL1        0.0810
     36 H           3.9242    4.4549   -0.5551 H       1  UNL1        0.1451
     37 H           4.0875    4.1362   -2.1675 H       1  UNL1        0.1451
@<TRIPOS>BOND
     1     2     1   ar
     2     3     2   ar
     3     4     3   ar
     4     5     4   ar
     5     6     5   ar
     6     6     1   ar
     7     7     4    1
     8     8     7    2
     9     9     7   am
    10    10     1    1
    11    11    10    1
    12    12    11    1
    13    13    12   ar
    14    14    13   ar
    15    14    15    1
    16    16    14   ar
    17    17    16   ar
    18    17    12   ar
    19    18    17   ar
    20    19    18    2
    21    20    18   ar
    22    21    20   ar
    23    22    21   ar
    24    22    23    1
    25    22    16   ar
    26    24    21    1
    27     2    25    1
    28     3    26    1
    29     5    27    1
    30     6    28    1
    31     9    29    1
    32     9    30    1
    33    10    31    1
    34    10    32    1
    35    11    33    1
    36    11    34    1
    37    13    35    1
    38    24    36    1
    39    24    37    1
