REMARK  5 active torsions:
REMARK  status: ('A' for Active; 'I' for Inactive)
REMARK    1  A    between atoms: C_10  and  C_1 
REMARK    2  A    between atoms: C_7  and  C_4 
REMARK       I    between atoms: N_9  and  C_7 
REMARK    3  A    between atoms: C_11  and  C_10 
REMARK    4  A    between atoms: C_12  and  C_11 
REMARK    5  A    between atoms: N_24  and  C_21 
ROOT
ATOM      1  C   UNL d   1       1.927  -1.016   0.086  0.00  0.00    -0.023 C 
ATOM      2  C   UNL d   1       2.259  -0.840   1.425  0.00  0.00     0.098 C 
ATOM      3  N   UNL d   1       2.789   0.418   1.590  0.00  0.00    -0.351 N 
ATOM      4  H   UNL d   1       3.064   0.825   2.473  0.00  0.00     0.166 HD
ATOM      5  C   UNL d   1       2.650   1.081   0.415  0.00  0.00     0.123 C 
ATOM      6  C   UNL d   1       2.250   0.210  -0.567  0.00  0.00     0.086 C 
ATOM      7  C   UNL d   1       2.061   0.710  -1.925  0.00  0.00     0.284 C 
ATOM      8  O   UNL d   1       1.556   0.013  -2.797  0.00  0.00    -0.265 OA
ATOM      9  N   UNL d   1       2.525   2.012  -2.150  0.00  0.00    -0.180 NA
ATOM     10  C   UNL d   1       3.009   2.744  -1.165  0.00  0.00     0.182 C 
ATOM     11  N   UNL d   1       3.097   2.317   0.153  0.00  0.00    -0.317 N 
ATOM     12  H   UNL d   1       3.529   2.904   0.860  0.00  0.00     0.170 HD
ENDROOT
BRANCH   1  13
ATOM     13  C   UNL d   1       1.423  -2.287  -0.521  0.00  0.00     0.045 C 
BRANCH  13  14
ATOM     14  C   UNL d   1       2.454  -3.059  -1.356  0.00  0.00     0.043 C 
BRANCH  14  15
ATOM     15  C   UNL d   1       3.698  -3.471  -0.605  0.00  0.00    -0.058 A 
ATOM     16  C   UNL d   1       3.689  -4.596   0.233  0.00  0.00     0.008 A 
ATOM     17  C   UNL d   1       4.809  -4.919   1.001  0.00  0.00     0.017 A 
ATOM     18  C   UNL d   1       5.947  -4.115   0.924  0.00  0.00     0.031 A 
ATOM     19  C   UNL d   1       5.974  -2.991   0.098  0.00  0.00     0.017 A 
ATOM     20  C   UNL d   1       4.851  -2.674  -0.664  0.00  0.00     0.008 A 
BRANCH  18  21
ATOM     21  C   UNL d   1       7.051  -4.327   1.874  0.00  0.00     0.249 C 
ATOM     22  O   UNL d   1       7.362  -3.440   2.660  0.00  0.00    -0.268 OA
ATOM     23  N   UNL d   1       7.651  -5.565   1.795  0.00  0.00    -0.366 N 
ATOM     24  H   UNL d   1       8.421  -5.767   2.428  0.00  0.00     0.159 HD
ATOM     25  H   UNL d   1       7.763  -6.007   0.887  0.00  0.00     0.159 HD
ENDBRANCH  18  21
ENDBRANCH  14  15
ENDBRANCH  13  14
ENDBRANCH   1  13
BRANCH  10  26
ATOM     26  N   UNL d   1       3.470   4.034  -1.364  0.00  0.00    -0.272 NA
ATOM     27  H   UNL d   1       3.924   4.455  -0.555  0.00  0.00     0.127 HD
ATOM     28  H   UNL d   1       4.088   4.136  -2.167  0.00  0.00     0.127 HD
ENDBRANCH  10  26
TORSDOF 5
