3C5D_LIV_B_24
 OpenBabel10091713573D
Coordinates from PDB:3C5D:B:24 Model:1 without hydrogens
 52 56  0  0  0  0  0  0  0  0999 V2000
   20.6820    5.7020   17.3390 C   0  0  2  0  0  0  0  0  0  0  0  0
   20.3680    5.1770   16.0430 O   0  0  0  0  0  0  0  0  0  0  0  0
   20.8180    7.2560   17.1950 C   0  0  2  0  0  0  0  0  0  0  0  0
   19.5990    7.8610   16.6670 N   0  0  0  0  0  0  0  0  0  0  0  0
   22.0710    7.6310   16.3190 C   0  0  0  0  0  0  0  0  0  0  0  0
   23.3380    6.9590   16.9630 C   0  0  2  0  0  0  0  0  0  0  0  0
   24.4930    7.2870   16.2150 O   0  0  0  0  0  0  0  0  0  0  0  0
   23.1330    5.4040   16.9870 C   0  0  2  0  0  0  0  0  0  0  0  0
   21.9270    5.1110   17.7970 O   0  0  0  0  0  0  0  0  0  0  0  0
   24.2740    4.6750   17.6130 C   0  0  0  0  0  0  0  0  0  0  0  0
   23.9750    3.2990   17.5250 O   0  0  0  0  0  0  0  0  0  0  0  0
   17.5270    2.4420   14.2130 C   0  0  1  0  0  0  0  0  0  0  0  0
   16.8040    1.2060   13.8340 N   0  0  0  0  0  0  0  0  0  0  0  0
   17.3720    2.7160   15.7570 C   0  0  2  0  0  0  0  0  0  0  0  0
   15.9640    2.8540   16.0690 O   0  0  0  0  0  0  0  0  0  0  0  0
   18.1190    4.0510   16.1520 C   0  0  1  0  0  0  0  0  0  0  0  0
   18.0220    4.3150   17.5760 O   0  0  0  0  0  0  0  0  0  0  0  0
   19.6290    3.9440   15.7850 C   0  0  1  0  0  0  0  0  0  0  0  0
   19.8710    3.6310   14.2940 C   0  0  1  0  0  0  0  0  0  0  0  0
   21.3220    3.5160   14.0280 N   0  0  0  0  0  0  0  0  0  0  0  0
   19.0860    2.2980   13.8880 C   0  0  0  0  0  0  0  0  0  0  0  0
   17.0490    5.1750   18.0710 C   0  0  1  0  0  0  0  0  0  0  0  0
   16.7400    4.8130   19.5250 C   0  0  2  0  0  0  0  0  0  0  0  0
   15.8810    3.6630   19.6670 O   0  0  0  0  0  0  0  0  0  0  0  0
   16.1440    6.0940   19.9850 C   0  0  1  0  0  0  0  0  0  0  0  0
   16.9800    7.2150   19.2830 C   0  0  2  0  0  0  0  0  0  0  0  0
   17.4800    6.5470   18.1290 O   0  0  0  0  0  0  0  0  0  0  0  0
   18.1670    7.7400   20.1040 C   0  0  0  0  0  0  0  0  0  0  0  0
   18.7120    8.8750   19.4240 O   0  0  0  0  0  0  0  0  0  0  0  0
   11.6520    9.0780   20.0250 C   0  0  1  0  0  0  0  0  0  0  0  0
   11.6430    9.3480   18.6160 O   0  0  0  0  0  0  0  0  0  0  0  0
   11.3150    7.4970   20.1550 C   0  0  2  0  0  0  0  0  0  0  0  0
   11.2910    7.2150   21.5670 O   0  0  0  0  0  0  0  0  0  0  0  0
   12.4720    6.6100   19.4530 C   0  0  1  0  0  0  0  0  0  0  0  0
   12.6020    6.7730   17.9840 N   0  0  0  0  0  0  0  0  0  0  0  0
   13.8820    6.9480   20.1720 C   0  0  1  0  0  0  0  0  0  0  0  0
   14.8300    6.2000   19.4890 O   0  0  0  0  0  0  0  0  0  0  0  0
   13.0770    9.2710   20.5160 C   0  0  1  0  0  0  0  0  0  0  0  0
   14.1970    8.4580   20.1180 O   0  0  0  0  0  0  0  0  0  0  0  0
   13.5760   10.7630   20.4180 C   0  0  0  0  0  0  0  0  0  0  0  0
   14.9810   10.9430   20.8550 N   0  0  0  0  0  0  0  0  0  0  0  0
   10.4540   10.2690   17.9220 C   0  0  2  0  0  0  0  0  0  0  0  0
   11.0340   10.1160   16.5030 C   0  0  2  0  0  0  0  0  0  0  0  0
   12.1260   11.1480   16.1180 C   0  0  2  0  0  0  0  0  0  0  0  0
   11.7130   12.5940   16.4250 C   0  0  1  0  0  0  0  0  0  0  0  0
   11.2790   12.6910   17.8840 C   0  0  1  0  0  0  0  0  0  0  0  0
   10.7860   14.0080   18.4750 C   0  0  0  0  0  0  0  0  0  0  0  0
    9.9420   10.2170   15.5600 O   0  0  0  0  0  0  0  0  0  0  0  0
   12.4010   11.0140   14.7140 O   0  0  0  0  0  0  0  0  0  0  0  0
   12.8550   13.4190   16.1100 O   0  0  0  0  0  0  0  0  0  0  0  0
   10.2970   11.6950   18.3040 O   0  0  0  0  0  0  0  0  0  0  0  0
   11.8420   14.6330   19.2580 O   0  0  0  0  0  0  0  0  0  0  0  0
  1  2  1  6  0  0  0
  1  3  1  0  0  0  0
  1  9  1  0  0  0  0
  3  4  1  6  0  0  0
  3  5  1  0  0  0  0
  5  6  1  0  0  0  0
  6  7  1  6  0  0  0
  6  8  1  0  0  0  0
  8  9  1  0  0  0  0
  8 10  1  1  0  0  0
 10 11  1  0  0  0  0
 12 13  1  1  0  0  0
 12 14  1  0  0  0  0
 12 21  1  0  0  0  0
 14 15  1  6  0  0  0
 14 16  1  0  0  0  0
 16 17  1  1  0  0  0
 16 18  1  0  0  0  0
 18  2  1  6  0  0  0
 18 19  1  0  0  0  0
 19 20  1  1  0  0  0
 19 21  1  0  0  0  0
 22 17  1  1  0  0  0
 22 23  1  0  0  0  0
 22 27  1  0  0  0  0
 23 24  1  6  0  0  0
 23 25  1  0  0  0  0
 25 26  1  0  0  0  0
 25 37  1  6  0  0  0
 26 27  1  0  0  0  0
 26 28  1  1  0  0  0
 28 29  1  0  0  0  0
 30 31  1  6  0  0  0
 30 32  1  0  0  0  0
 30 38  1  0  0  0  0
 32 33  1  1  0  0  0
 32 34  1  0  0  0  0
 34 35  1  6  0  0  0
 34 36  1  0  0  0  0
 36 37  1  6  0  0  0
 36 39  1  0  0  0  0
 38 39  1  0  0  0  0
 38 40  1  6  0  0  0
 40 41  1  0  0  0  0
 42 31  1  1  0  0  0
 42 43  1  0  0  0  0
 42 51  1  0  0  0  0
 43 44  1  0  0  0  0
 43 48  1  6  0  0  0
 44 45  1  0  0  0  0
 44 49  1  6  0  0  0
 45 46  1  0  0  0  0
 45 50  1  1  0  0  0
 46 47  1  6  0  0  0
 46 51  1  0  0  0  0
 47 52  1  0  0  0  0
A    1
C11
A    2
O11
A    3
C21
A    4
N21
A    5
C31
A    6
C41
A    7
O41
A    8
C51
A    9
O51
A   10
C61
A   11
O61
A   12
C12
A   13
N12
A   14
C62
A   15
O62
A   16
C52
A   17
O52
A   18
C42
A   19
C32
A   20
N32
A   21
C22
A   22
C13
A   23
C23
A   24
O23
A   25
C33
A   26
C43
A   27
O43
A   28
C53
A   29
O53
A   30
C44
A   31
O44
A   32
C34
A   33
O34
A   34
C24
A   35
N24
A   36
C14
A   37
O33
A   38
C54
A   39
O54
A   40
C64
A   41
N64
A   42
C15
A   43
C25
A   44
C35
A   45
C45
A   46
C55
A   47
C65
A   48
O25
A   49
O35
A   50
O45
A   51
O55
A   52
O65
M  END
>  <InstanceId>
3C5D_LIV_B_24

>  <ChemCompId>
LIV

>  <PdbId>
3C5D

>  <ChainId>
B

>  <ResidueNumber>
24

>  <InsertionCode>


>  <Model>
1

>  <AltIds>


>  <MissingHeavyAtoms>
0

>  <ObservedFormula>
C29 N5 O18

>  <Name>
(2R,3S,4S,5S,6R)-2-((2S,3S,4R,5R,6R)-5-AMINO-2-(AMINOMETHYL)-6-((2R,3S,4R,5S)-5-((1R,2R,3S,5R,6S)-3,5-DIAMINO-2-((2S,3R,5S,6R)-3-AMINO-5-HYDROXY-6-(HYDROXYMETHYL)-TETRAHYDRO-2H-PYRAN-2-YLOXY)-6-HYDROXYCYCLOHEXYLOXY)-4-HYDROXY-2-(HYDROXYMETHYL)-TETRAHYDROFURAN-3-YLOXY)-4-HYDROXY-TETRAHYDRO-2H-PYRAN-3-YLOXY)-6-(HYDROXYMETHYL)-TETRAHYDRO-2H-PYRAN-3,4,5-TRIOL

>  <SystematicName>
(2R,3S,4S,5S,6R)-2-[(2S,3S,4R,5R,6R)-5-amino-2-(aminomethyl)-6-[(2R,3S,4R,5S)-5-[(1R,2R,3S,5R,6S)-3,5-diamino-2-[(2S,3R,5S,6R)-3-amino-5-hydroxy-6-(hydroxymethyl)oxan-2-yl]oxy-6-hydroxy-cyclohexyl]oxy-4-hydroxy-2-(hydroxymethyl)oxolan-3-yl]oxy-4-hydroxy-oxan-3-yl]oxy-6-(hydroxymethyl)oxane-3,4,5-triol

>  <Synonyms>
LIVIDOMYCIN A; O-2-AMINO-2,3-DIDEOXY-ALPHA-D-GLUCOPYRANOSYL-(1,4)-O-[BETA-D-MANNOPYRANOSYL-(1,4)-O-2,6-DIAMINO-2,6-DIDEOXY-BETA-L-IDOPYRANOSYL-(1,3)-BETA-D-RIBOFURANOSYL-(1,5)-2-DEOXY-D-STREPTAMINE

>  <Type>
NON-POLYMER

>  <Formula>
C29 H55 N5 O18

>  <MolecularWeight>
761.77

>  <ModifiedDate>
2011-06-04

>  <Parent>


>  <OneLetterCode>


>  <SubcomponentList>


>  <AmbiguousFlag>
N

>  <InChI>
InChI=1S/C29H55N5O18/c30-3-11-23(51-28-20(43)19(42)17(40)13(5-36)47-28)18(41)15(34)27(45-11)50-24-14(6-37)48-29(21(24)44)52-25-16(39)7(31)1-8(32)22(25)49-26-9(33)2-10(38)12(4-35)46-26/h7-29,35-44H,1-6,30-34H2/t7-,8+,9-,10+,11+,12-,13-,14-,15-,16+,17-,18-,19+,20+,21-,22-,23-,24-,25-,26-,27-,28-,29+/m1/s1

>  <InChIKey>
DBLVDAUGBTYDFR-SWMBIRFSSA-N

>  <SMILES>
C1[C@H]([C@@H]([C@H]([C@@H]([C@H]1N)O[C@@H]2[C@@H](C[C@@H]([C@H](O2)CO)O)N)O[C@H]3[C@@H]([C@@H]([C@H](O3)CO)O[C@@H]4[C@@H]([C@H]([C@@H]([C@@H](O4)CN)O[C@@H]5[C@H]([C@H]([C@@H]([C@H](O5)CO)O)O)O)O)N)O)O)N

$$$$
