3C5D_LIV_B_24
 OpenBabel10281720493D
Coordinates from PDB:3C5D:B:24 Model:1 without hydrogens
107111  0  0  0  0  0  0  0  0999 V2000
   20.6820    5.7020   17.3390 C   0  0  2  0  0  0  0  0  0  0  0  0
   20.3680    5.1770   16.0430 O   0  0  0  0  0  0  0  0  0  0  0  0
   20.8180    7.2560   17.1950 C   0  0  2  0  0  0  0  0  0  0  0  0
   19.5990    7.8610   16.6670 N   0  0  0  0  0  0  0  0  0  0  0  0
   22.0710    7.6310   16.3190 C   0  0  0  0  0  0  0  0  0  0  0  0
   23.3380    6.9590   16.9630 C   0  0  2  0  0  0  0  0  0  0  0  0
   24.4930    7.2870   16.2150 O   0  0  0  0  0  0  0  0  0  0  0  0
   23.1330    5.4040   16.9870 C   0  0  2  0  0  0  0  0  0  0  0  0
   21.9270    5.1110   17.7970 O   0  0  0  0  0  0  0  0  0  0  0  0
   24.2740    4.6750   17.6130 C   0  0  0  0  0  0  0  0  0  0  0  0
   23.9750    3.2990   17.5250 O   0  0  0  0  0  0  0  0  0  0  0  0
   17.5270    2.4420   14.2130 C   0  0  1  0  0  0  0  0  0  0  0  0
   16.8040    1.2060   13.8340 N   0  0  0  0  0  0  0  0  0  0  0  0
   17.3720    2.7160   15.7570 C   0  0  2  0  0  0  0  0  0  0  0  0
   15.9640    2.8540   16.0690 O   0  0  0  0  0  0  0  0  0  0  0  0
   18.1190    4.0510   16.1520 C   0  0  1  0  0  0  0  0  0  0  0  0
   18.0220    4.3150   17.5760 O   0  0  0  0  0  0  0  0  0  0  0  0
   19.6290    3.9440   15.7850 C   0  0  1  0  0  0  0  0  0  0  0  0
   19.8710    3.6310   14.2940 C   0  0  1  0  0  0  0  0  0  0  0  0
   21.3220    3.5160   14.0280 N   0  0  0  0  0  0  0  0  0  0  0  0
   19.0860    2.2980   13.8880 C   0  0  0  0  0  0  0  0  0  0  0  0
   17.0490    5.1750   18.0710 C   0  0  1  0  0  0  0  0  0  0  0  0
   16.7400    4.8130   19.5250 C   0  0  2  0  0  0  0  0  0  0  0  0
   15.8810    3.6630   19.6670 O   0  0  0  0  0  0  0  0  0  0  0  0
   16.1440    6.0940   19.9850 C   0  0  1  0  0  0  0  0  0  0  0  0
   16.9800    7.2150   19.2830 C   0  0  2  0  0  0  0  0  0  0  0  0
   17.4800    6.5470   18.1290 O   0  0  0  0  0  0  0  0  0  0  0  0
   18.1670    7.7400   20.1040 C   0  0  0  0  0  0  0  0  0  0  0  0
   18.7120    8.8750   19.4240 O   0  0  0  0  0  0  0  0  0  0  0  0
   11.6520    9.0780   20.0250 C   0  0  1  0  0  0  0  0  0  0  0  0
   11.6430    9.3480   18.6160 O   0  0  0  0  0  0  0  0  0  0  0  0
   11.3150    7.4970   20.1550 C   0  0  2  0  0  0  0  0  0  0  0  0
   11.2910    7.2150   21.5670 O   0  0  0  0  0  0  0  0  0  0  0  0
   12.4720    6.6100   19.4530 C   0  0  1  0  0  0  0  0  0  0  0  0
   12.6020    6.7730   17.9840 N   0  0  0  0  0  0  0  0  0  0  0  0
   13.8820    6.9480   20.1720 C   0  0  1  0  0  0  0  0  0  0  0  0
   14.8300    6.2000   19.4890 O   0  0  0  0  0  0  0  0  0  0  0  0
   13.0770    9.2710   20.5160 C   0  0  1  0  0  0  0  0  0  0  0  0
   14.1970    8.4580   20.1180 O   0  0  0  0  0  0  0  0  0  0  0  0
   13.5760   10.7630   20.4180 C   0  0  0  0  0  0  0  0  0  0  0  0
   14.9810   10.9430   20.8550 N   0  0  0  0  0  0  0  0  0  0  0  0
   10.4540   10.2690   17.9220 C   0  0  2  0  0  0  0  0  0  0  0  0
   11.0340   10.1160   16.5030 C   0  0  2  0  0  0  0  0  0  0  0  0
   12.1260   11.1480   16.1180 C   0  0  2  0  0  0  0  0  0  0  0  0
   11.7130   12.5940   16.4250 C   0  0  1  0  0  0  0  0  0  0  0  0
   11.2790   12.6910   17.8840 C   0  0  1  0  0  0  0  0  0  0  0  0
   10.7860   14.0080   18.4750 C   0  0  0  0  0  0  0  0  0  0  0  0
    9.9420   10.2170   15.5600 O   0  0  0  0  0  0  0  0  0  0  0  0
   12.4010   11.0140   14.7140 O   0  0  0  0  0  0  0  0  0  0  0  0
   12.8550   13.4190   16.1100 O   0  0  0  0  0  0  0  0  0  0  0  0
   10.2970   11.6950   18.3040 O   0  0  0  0  0  0  0  0  0  0  0  0
   11.8420   14.6330   19.2580 O   0  0  0  0  0  0  0  0  0  0  0  0
   19.9202    5.4722   18.0544 H   0  0  0  0  0  0  0  0  0  0  0  0
   20.9674    7.6585   18.1751 H   0  0  0  0  0  0  0  0  0  0  0  0
   19.4199    7.5020   15.7292 H   0  0  0  0  0  0  0  0  0  0  0  0
   19.7117    8.8740   16.6275 H   0  0  0  0  0  0  0  0  0  0  0  0
   22.1948    8.6936   16.2997 H   0  0  0  0  0  0  0  0  0  0  0  0
   21.9381    7.2844   15.3155 H   0  0  0  0  0  0  0  0  0  0  0  0
   23.4680    7.3184   17.9624 H   0  0  0  0  0  0  0  0  0  0  0  0
   24.3904    6.9673   15.3050 H   0  0  0  0  0  0  0  0  0  0  0  0
   23.0456    5.0784   15.9715 H   0  0  0  0  0  0  0  0  0  0  0  0
   24.3786    4.9646   18.6377 H   0  0  0  0  0  0  0  0  0  0  0  0
   25.1938    4.9010   17.1153 H   0  0  0  0  0  0  0  0  0  0  0  0
   23.1387    3.1199   17.9826 H   0  0  0  0  0  0  0  0  0  0  0  0
   17.1083    3.2510   13.6517 H   0  0  0  0  0  0  0  0  0  0  0  0
   17.1840    0.4162   14.3558 H   0  0  0  0  0  0  0  0  0  0  0  0
   16.9171    1.0390   12.8342 H   0  0  0  0  0  0  0  0  0  0  0  0
   17.7981    1.9011   16.3041 H   0  0  0  0  0  0  0  0  0  0  0  0
   15.5926    3.5957   15.5661 H   0  0  0  0  0  0  0  0  0  0  0  0
   17.6510    4.8478   15.6126 H   0  0  0  0  0  0  0  0  0  0  0  0
   19.9737    3.1455   16.4083 H   0  0  0  0  0  0  0  0  0  0  0  0
   19.4948    4.4314   13.6918 H   0  0  0  0  0  0  0  0  0  0  0  0
   21.7116    2.7587   14.5893 H   0  0  0  0  0  0  0  0  0  0  0  0
   21.7830    4.3924   14.2726 H   0  0  0  0  0  0  0  0  0  0  0  0
   19.2119    2.1210   12.8403 H   0  0  0  0  0  0  0  0  0  0  0  0
   19.4818    1.4793   14.4518 H   0  0  0  0  0  0  0  0  0  0  0  0
   16.2155    5.0728   17.4079 H   0  0  0  0  0  0  0  0  0  0  0  0
   17.5834    4.4931   20.1006 H   0  0  0  0  0  0  0  0  0  0  0  0
   15.0545    3.8150   19.1826 H   0  0  0  0  0  0  0  0  0  0  0  0
   16.1416    6.1617   21.0529 H   0  0  0  0  0  0  0  0  0  0  0  0
   16.3754    8.0799   19.1058 H   0  0  0  0  0  0  0  0  0  0  0  0
   18.9126    6.9775   20.1917 H   0  0  0  0  0  0  0  0  0  0  0  0
   17.8444    8.0165   21.0860 H   0  0  0  0  0  0  0  0  0  0  0  0
   19.0005    8.6121   18.5360 H   0  0  0  0  0  0  0  0  0  0  0  0
   10.9712    9.6985   20.5695 H   0  0  0  0  0  0  0  0  0  0  0  0
   10.3872    7.2606   19.6774 H   0  0  0  0  0  0  0  0  0  0  0  0
   12.1492    7.4437   21.9570 H   0  0  0  0  0  0  0  0  0  0  0  0
   12.1845    5.5878   19.5850 H   0  0  0  0  0  0  0  0  0  0  0  0
   12.8769    7.7320   17.7713 H   0  0  0  0  0  0  0  0  0  0  0  0
   11.7072    6.5691   17.5388 H   0  0  0  0  0  0  0  0  0  0  0  0
   13.8646    6.7012   21.2130 H   0  0  0  0  0  0  0  0  0  0  0  0
   12.8464    8.8953   21.4910 H   0  0  0  0  0  0  0  0  0  0  0  0
   12.9483   11.3719   21.0345 H   0  0  0  0  0  0  0  0  0  0  0  0
   13.5268   11.0458   19.3872 H   0  0  0  0  0  0  0  0  0  0  0  0
   15.0676   10.6821   21.8373 H   0  0  0  0  0  0  0  0  0  0  0  0
   15.2512   11.9195   20.7375 H   0  0  0  0  0  0  0  0  0  0  0  0
    9.4591    9.9619   18.1684 H   0  0  0  0  0  0  0  0  0  0  0  0
   11.5217    9.1639   16.4792 H   0  0  0  0  0  0  0  0  0  0  0  0
   12.9960   10.9438   16.7065 H   0  0  0  0  0  0  0  0  0  0  0  0
   10.8771   12.9249   15.8448 H   0  0  0  0  0  0  0  0  0  0  0  0
   12.2623   12.5281   18.2733 H   0  0  0  0  0  0  0  0  0  0  0  0
    9.9427   13.8188   19.1059 H   0  0  0  0  0  0  0  0  0  0  0  0
   10.5056   14.6653   17.6786 H   0  0  0  0  0  0  0  0  0  0  0  0
    9.5388   11.0968   15.6252 H   0  0  0  0  0  0  0  0  0  0  0  0
   11.5961   11.2046   14.2073 H   0  0  0  0  0  0  0  0  0  0  0  0
   13.6188   13.1266   16.6315 H   0  0  0  0  0  0  0  0  0  0  0  0
   12.1008   14.0417   19.9821 H   0  0  0  0  0  0  0  0  0  0  0  0
  1  2  1  0  0  0  0
  1  3  1  0  0  0  0
  1  9  1  0  0  0  0
  1 53  1  1  0  0  0
  3  4  1  0  0  0  0
  3  5  1  0  0  0  0
  3 54  1  1  0  0  0
  4 55  1  0  0  0  0
  4 56  1  0  0  0  0
  5  6  1  0  0  0  0
  5 57  1  0  0  0  0
  5 58  1  0  0  0  0
  6  7  1  0  0  0  0
  6  8  1  0  0  0  0
  6 59  1  1  0  0  0
  7 60  1  0  0  0  0
  8  9  1  0  0  0  0
  8 10  1  0  0  0  0
  8 61  1  6  0  0  0
 10 11  1  0  0  0  0
 10 62  1  0  0  0  0
 10 63  1  0  0  0  0
 11 64  1  0  0  0  0
 12 13  1  0  0  0  0
 12 14  1  0  0  0  0
 12 21  1  0  0  0  0
 12 65  1  6  0  0  0
 13 66  1  0  0  0  0
 13 67  1  0  0  0  0
 14 15  1  0  0  0  0
 14 16  1  0  0  0  0
 14 68  1  1  0  0  0
 15 69  1  0  0  0  0
 16 17  1  0  0  0  0
 16 18  1  0  0  0  0
 16 70  1  6  0  0  0
 18  2  1  0  0  0  0
 18 19  1  0  0  0  0
 18 71  1  1  0  0  0
 19 20  1  0  0  0  0
 19 21  1  0  0  0  0
 19 72  1  6  0  0  0
 20 73  1  0  0  0  0
 20 74  1  0  0  0  0
 21 75  1  0  0  0  0
 21 76  1  0  0  0  0
 22 17  1  0  0  0  0
 22 23  1  0  0  0  0
 22 27  1  0  0  0  0
 22 77  1  6  0  0  0
 23 24  1  0  0  0  0
 23 25  1  0  0  0  0
 23 78  1  1  0  0  0
 24 79  1  0  0  0  0
 25 26  1  0  0  0  0
 25 37  1  0  0  0  0
 25 80  1  1  0  0  0
 26 27  1  0  0  0  0
 26 28  1  0  0  0  0
 26 81  1  6  0  0  0
 28 29  1  0  0  0  0
 28 82  1  0  0  0  0
 28 83  1  0  0  0  0
 29 84  1  0  0  0  0
 30 31  1  0  0  0  0
 30 32  1  0  0  0  0
 30 38  1  0  0  0  0
 30 85  1  1  0  0  0
 32 33  1  0  0  0  0
 32 34  1  0  0  0  0
 32 86  1  6  0  0  0
 33 87  1  0  0  0  0
 34 35  1  0  0  0  0
 34 36  1  0  0  0  0
 34 88  1  1  0  0  0
 35 89  1  0  0  0  0
 35 90  1  0  0  0  0
 36 37  1  0  0  0  0
 36 39  1  0  0  0  0
 36 91  1  1  0  0  0
 38 39  1  0  0  0  0
 38 40  1  0  0  0  0
 38 92  1  1  0  0  0
 40 41  1  0  0  0  0
 40 93  1  0  0  0  0
 40 94  1  0  0  0  0
 41 95  1  0  0  0  0
 41 96  1  0  0  0  0
 42 31  1  0  0  0  0
 42 43  1  0  0  0  0
 42 51  1  0  0  0  0
 42 97  1  1  0  0  0
 43 44  1  0  0  0  0
 43 48  1  0  0  0  0
 43 98  1  6  0  0  0
 44 45  1  0  0  0  0
 44 49  1  0  0  0  0
 44 99  1  1  0  0  0
 45 46  1  0  0  0  0
 45 50  1  0  0  0  0
 45100  1  6  0  0  0
 46 47  1  0  0  0  0
 46 51  1  0  0  0  0
 46101  1  1  0  0  0
 47 52  1  0  0  0  0
 47102  1  0  0  0  0
 47103  1  0  0  0  0
 48104  1  0  0  0  0
 49105  1  0  0  0  0
 50106  1  0  0  0  0
 52107  1  0  0  0  0
A    1
C11
A    2
O11
A    3
C21
A    4
N21
A    5
C31
A    6
C41
A    7
O41
A    8
C51
A    9
O51
A   10
C61
A   11
O61
A   12
C12
A   13
N12
A   14
C62
A   15
O62
A   16
C52
A   17
O52
A   18
C42
A   19
C32
A   20
N32
A   21
C22
A   22
C13
A   23
C23
A   24
O23
A   25
C33
A   26
C43
A   27
O43
A   28
C53
A   29
O53
A   30
C44
A   31
O44
A   32
C34
A   33
O34
A   34
C24
A   35
N24
A   36
C14
A   37
O33
A   38
C54
A   39
O54
A   40
C64
A   41
N64
A   42
C15
A   43
C25
A   44
C35
A   45
C45
A   46
C55
A   47
C65
A   48
O25
A   49
O35
A   50
O45
A   51
O55
A   52
O65
M  END
>  <InstanceId>
3C5D_LIV_B_24

>  <ChemCompId>
LIV

>  <PdbId>
3C5D

>  <ChainId>
B

>  <ResidueNumber>
24

>  <InsertionCode>


>  <Model>
1

>  <AltIds>


>  <MissingHeavyAtoms>
0

>  <ObservedFormula>
C29 N5 O18

>  <Name>
(2R,3S,4S,5S,6R)-2-((2S,3S,4R,5R,6R)-5-AMINO-2-(AMINOMETHYL)-6-((2R,3S,4R,5S)-5-((1R,2R,3S,5R,6S)-3,5-DIAMINO-2-((2S,3R,5S,6R)-3-AMINO-5-HYDROXY-6-(HYDROXYMETHYL)-TETRAHYDRO-2H-PYRAN-2-YLOXY)-6-HYDROXYCYCLOHEXYLOXY)-4-HYDROXY-2-(HYDROXYMETHYL)-TETRAHYDROFURAN-3-YLOXY)-4-HYDROXY-TETRAHYDRO-2H-PYRAN-3-YLOXY)-6-(HYDROXYMETHYL)-TETRAHYDRO-2H-PYRAN-3,4,5-TRIOL

>  <SystematicName>
(2R,3S,4S,5S,6R)-2-[(2S,3S,4R,5R,6R)-5-amino-2-(aminomethyl)-6-[(2R,3S,4R,5S)-5-[(1R,2R,3S,5R,6S)-3,5-diamino-2-[(2S,3R,5S,6R)-3-amino-5-hydroxy-6-(hydroxymethyl)oxan-2-yl]oxy-6-hydroxy-cyclohexyl]oxy-4-hydroxy-2-(hydroxymethyl)oxolan-3-yl]oxy-4-hydroxy-oxan-3-yl]oxy-6-(hydroxymethyl)oxane-3,4,5-triol

>  <Synonyms>
LIVIDOMYCIN A; O-2-AMINO-2,3-DIDEOXY-ALPHA-D-GLUCOPYRANOSYL-(1,4)-O-[BETA-D-MANNOPYRANOSYL-(1,4)-O-2,6-DIAMINO-2,6-DIDEOXY-BETA-L-IDOPYRANOSYL-(1,3)-BETA-D-RIBOFURANOSYL-(1,5)-2-DEOXY-D-STREPTAMINE

>  <Type>
NON-POLYMER

>  <Formula>
C29 H55 N5 O18

>  <MolecularWeight>
761.77

>  <ModifiedDate>
2011-06-04

>  <Parent>


>  <OneLetterCode>


>  <SubcomponentList>


>  <AmbiguousFlag>
N

>  <InChI>
InChI=1S/C29H55N5O18/c30-3-11-23(51-28-20(43)19(42)17(40)13(5-36)47-28)18(41)15(34)27(45-11)50-24-14(6-37)48-29(21(24)44)52-25-16(39)7(31)1-8(32)22(25)49-26-9(33)2-10(38)12(4-35)46-26/h7-29,35-44H,1-6,30-34H2/t7-,8+,9-,10+,11+,12-,13-,14-,15-,16+,17-,18-,19+,20+,21-,22-,23-,24-,25-,26-,27-,28-,29+/m1/s1

>  <InChIKey>
DBLVDAUGBTYDFR-SWMBIRFSSA-N

>  <SMILES>
C1[C@H]([C@@H]([C@H]([C@@H]([C@H]1N)O[C@@H]2[C@@H](C[C@@H]([C@H](O2)CO)O)N)O[C@H]3[C@@H]([C@@H]([C@H](O3)CO)O[C@@H]4[C@@H]([C@H]([C@@H]([C@@H](O4)CN)O[C@@H]5[C@H]([C@H]([C@@H]([C@H](O5)CO)O)O)O)O)N)O)O)N

$$$$
