@<TRIPOS>MOLECULE
3C5D_LIV_B_24
 52 56 0 0 0
SMALL
GASTEIGER
****
Coordinates from PDB:3C5D:B:24 Model:1 without hydrogens
@<TRIPOS>ATOM
      1 C          20.6820    5.7020   17.3390 C.3     1  UNL1        0.2535
      2 O          20.3680    5.1770   16.0430 O.3     1  UNL1       -0.3278
      3 C          20.8180    7.2560   17.1950 C.3     1  UNL1        0.1506
      4 N          19.5990    7.8610   16.6670 N.3     1  UNL1       -0.1275
      5 C          22.0710    7.6310   16.3190 C.3     1  UNL1        0.0597
      6 C          23.3380    6.9590   16.9630 C.3     1  UNL1        0.1832
      7 O          24.4930    7.2870   16.2150 O.3     1  UNL1       -0.2204
      8 C          23.1330    5.4040   16.9870 C.3     1  UNL1        0.1808
      9 O          21.9270    5.1110   17.7970 O.3     1  UNL1       -0.3266
     10 C          24.2740    4.6750   17.6130 C.3     1  UNL1        0.2141
     11 O          23.9750    3.2990   17.5250 O.3     1  UNL1       -0.2176
     12 C          17.5270    2.4420   14.2130 C.3     1  UNL1        0.1261
     13 N          16.8040    1.2060   13.8340 N.3     1  UNL1       -0.1301
     14 C          17.3720    2.7160   15.7570 C.3     1  UNL1        0.1989
     15 O          15.9640    2.8540   16.0690 O.3     1  UNL1       -0.2189
     16 C          18.1190    4.0510   16.1520 C.3     1  UNL1        0.1779
     17 O          18.0220    4.3150   17.5760 O.3     1  UNL1       -0.3258
     18 C          19.6290    3.9440   15.7850 C.3     1  UNL1        0.1649
     19 C          19.8710    3.6310   14.2940 C.3     1  UNL1        0.1230
     20 N          21.3220    3.5160   14.0280 N.3     1  UNL1       -0.1302
     21 C          19.0860    2.2980   13.8880 C.3     1  UNL1        0.0433
     22 C          17.0490    5.1750   18.0710 C.3     1  UNL1        0.2694
     23 C          16.7400    4.8130   19.5250 C.3     1  UNL1        0.2373
     24 O          15.8810    3.6630   19.6670 O.3     1  UNL1       -0.2150
     25 C          16.1440    6.0940   19.9850 C.3     1  UNL1        0.1827
     26 C          16.9800    7.2150   19.2830 C.3     1  UNL1        0.1804
     27 O          17.4800    6.5470   18.1290 O.3     1  UNL1       -0.3257
     28 C          18.1670    7.7400   20.1040 C.3     1  UNL1        0.2141
     29 O          18.7120    8.8750   19.4240 O.3     1  UNL1       -0.2176
     30 C          11.6520    9.0780   20.0250 C.3     1  UNL1        0.1782
     31 O          11.6430    9.3480   18.6160 O.3     1  UNL1       -0.3258
     32 C          11.3150    7.4970   20.1550 C.3     1  UNL1        0.2038
     33 O          11.2910    7.2150   21.5670 O.3     1  UNL1       -0.2187
     34 C          12.4720    6.6100   19.4530 C.3     1  UNL1        0.1806
     35 N          12.6020    6.7730   17.9840 N.3     1  UNL1       -0.1248
     36 C          13.8820    6.9480   20.1720 C.3     1  UNL1        0.2561
     37 O          14.8300    6.2000   19.4890 O.3     1  UNL1       -0.3265
     38 C          13.0770    9.2710   20.5160 C.3     1  UNL1        0.1664
     39 O          14.1970    8.4580   20.1180 O.3     1  UNL1       -0.3277
     40 C          13.5760   10.7630   20.4180 C.3     1  UNL1        0.1414
     41 N          14.9810   10.9430   20.8550 N.3     1  UNL1       -0.1286
     42 C          10.4540   10.2690   17.9220 C.3     1  UNL1        0.2695
     43 C          11.0340   10.1160   16.5030 C.3     1  UNL1        0.2406
     44 C          12.1260   11.1480   16.1180 C.3     1  UNL1        0.2198
     45 C          11.7130   12.5940   16.4250 C.3     1  UNL1        0.2144
     46 C          11.2790   12.6910   17.8840 C.3     1  UNL1        0.1835
     47 C          10.7860   14.0080   18.4750 C.3     1  UNL1        0.2142
     48 O           9.9420   10.2170   15.5600 O.3     1  UNL1       -0.2149
     49 O          12.4010   11.0140   14.7140 O.3     1  UNL1       -0.2174
     50 O          12.8550   13.4190   16.1100 O.3     1  UNL1       -0.2176
     51 O          10.2970   11.6950   18.3040 O.3     1  UNL1       -0.3256
     52 O          11.8420   14.6330   19.2580 O.3     1  UNL1       -0.2176
@<TRIPOS>BOND
     1     1     2    1
     2     1     3    1
     3     1     9    1
     4     3     4    1
     5     3     5    1
     6     5     6    1
     7     6     7    1
     8     6     8    1
     9     8     9    1
    10     8    10    1
    11    10    11    1
    12    12    13    1
    13    12    14    1
    14    12    21    1
    15    14    15    1
    16    14    16    1
    17    16    17    1
    18    16    18    1
    19    18     2    1
    20    18    19    1
    21    19    20    1
    22    19    21    1
    23    22    17    1
    24    22    23    1
    25    22    27    1
    26    23    24    1
    27    23    25    1
    28    25    26    1
    29    25    37    1
    30    26    27    1
    31    26    28    1
    32    28    29    1
    33    30    31    1
    34    30    32    1
    35    30    38    1
    36    32    33    1
    37    32    34    1
    38    34    35    1
    39    34    36    1
    40    36    37    1
    41    36    39    1
    42    38    39    1
    43    38    40    1
    44    40    41    1
    45    42    31    1
    46    42    43    1
    47    42    51    1
    48    43    44    1
    49    43    48    1
    50    44    45    1
    51    44    49    1
    52    45    46    1
    53    45    50    1
    54    46    47    1
    55    46    51    1
    56    47    52    1
