REMARK  12 active torsions:
REMARK  status: ('A' for Active; 'I' for Inactive)
REMARK    1  A    between atoms: C_1  and  O_2 
REMARK    2  A    between atoms: C_18  and  O_2 
REMARK    3  A    between atoms: C_8  and  C_10 
REMARK    4  A    between atoms: C_16  and  O_17 
REMARK    5  A    between atoms: C_22  and  O_17 
REMARK    6  A    between atoms: C_25  and  O_37 
REMARK    7  A    between atoms: C_26  and  C_28 
REMARK    8  A    between atoms: C_30  and  O_31 
REMARK    9  A    between atoms: C_42  and  O_31 
REMARK   10  A    between atoms: C_36  and  O_37 
REMARK   11  A    between atoms: C_38  and  C_40 
REMARK   12  A    between atoms: C_46  and  C_47 
ROOT
ATOM      1  C   UNL d   1      17.049   5.175  18.071  0.00  0.00     0.270 C 
ATOM      2  C   UNL d   1      16.740   4.813  19.525  0.00  0.00     0.238 C 
ATOM      3  O   UNL d   1      15.881   3.663  19.667  0.00  0.00    -0.215 OA
ATOM      4  C   UNL d   1      16.144   6.094  19.985  0.00  0.00     0.183 C 
ATOM      5  C   UNL d   1      16.980   7.215  19.283  0.00  0.00     0.181 C 
ATOM      6  O   UNL d   1      17.480   6.547  18.129  0.00  0.00    -0.326 OA
ENDROOT
BRANCH   4   7
ATOM      7  O   UNL d   1      14.830   6.200  19.489  0.00  0.00    -0.326 OA
BRANCH   7   8
ATOM      8  C   UNL d   1      13.882   6.948  20.172  0.00  0.00     0.277 C 
ATOM      9  C   UNL d   1      12.472   6.610  19.453  0.00  0.00     0.390 C 
ATOM     10  C   UNL d   1      11.315   7.497  20.155  0.00  0.00     0.224 C 
ATOM     11  N   UNL d   1      12.602   6.773  17.984  0.00  0.00     0.624 N 
ATOM     12  C   UNL d   1      11.652   9.078  20.025  0.00  0.00     0.180 C 
ATOM     13  O   UNL d   1      11.291   7.215  21.567  0.00  0.00    -0.218 OA
ATOM     14  C   UNL d   1      13.077   9.271  20.516  0.00  0.00     0.187 C 
ATOM     15  O   UNL d   1      14.197   8.458  20.118  0.00  0.00    -0.327 OA
BRANCH  12  16
ATOM     16  O   UNL d   1      11.643   9.348  18.616  0.00  0.00    -0.326 OA
BRANCH  16  17
ATOM     17  C   UNL d   1      10.454  10.269  17.922  0.00  0.00     0.270 C 
ATOM     18  C   UNL d   1      11.034  10.116  16.503  0.00  0.00     0.241 C 
ATOM     19  C   UNL d   1      12.126  11.148  16.118  0.00  0.00     0.220 C 
ATOM     20  O   UNL d   1       9.942  10.217  15.560  0.00  0.00    -0.215 OA
ATOM     21  C   UNL d   1      11.713  12.594  16.425  0.00  0.00     0.215 C 
ATOM     22  O   UNL d   1      12.401  11.014  14.714  0.00  0.00    -0.218 OA
ATOM     23  C   UNL d   1      11.279  12.691  17.884  0.00  0.00     0.184 C 
ATOM     24  O   UNL d   1      12.855  13.419  16.110  0.00  0.00    -0.218 OA
ATOM     25  O   UNL d   1      10.297  11.695  18.304  0.00  0.00    -0.326 OA
BRANCH  23  26
ATOM     26  C   UNL d   1      10.786  14.008  18.475  0.00  0.00     0.214 C 
ATOM     27  O   UNL d   1      11.842  14.633  19.258  0.00  0.00    -0.218 OA
ENDBRANCH  23  26
ENDBRANCH  16  17
ENDBRANCH  12  16
BRANCH  14  28
ATOM     28  C   UNL d   1      13.576  10.763  20.418  0.00  0.00     0.370 C 
ATOM     29  N   UNL d   1      14.981  10.943  20.855  0.00  0.00     0.621 N 
ENDBRANCH  14  28
ENDBRANCH   7   8
ENDBRANCH   4   7
BRANCH   5  30
ATOM     30  C   UNL d   1      18.167   7.740  20.104  0.00  0.00     0.214 C 
ATOM     31  O   UNL d   1      18.712   8.875  19.424  0.00  0.00    -0.218 OA
ENDBRANCH   5  30
BRANCH   1  32
ATOM     32  O   UNL d   1      18.022   4.315  17.576  0.00  0.00    -0.326 OA
BRANCH  32  33
ATOM     33  C   UNL d   1      18.119   4.051  16.152  0.00  0.00     0.180 C 
ATOM     34  C   UNL d   1      17.372   2.716  15.757  0.00  0.00     0.218 C 
ATOM     35  C   UNL d   1      17.527   2.442  14.213  0.00  0.00     0.337 C 
ATOM     36  O   UNL d   1      15.964   2.854  16.069  0.00  0.00    -0.218 OA
ATOM     37  N   UNL d   1      16.804   1.206  13.834  0.00  0.00     0.619 N 
ATOM     38  C   UNL d   1      19.086   2.298  13.888  0.00  0.00     0.084 C 
ATOM     39  C   UNL d   1      19.871   3.631  14.294  0.00  0.00     0.333 C 
ATOM     40  C   UNL d   1      19.629   3.944  15.785  0.00  0.00     0.184 C 
ATOM     41  N   UNL d   1      21.322   3.516  14.028  0.00  0.00     0.619 N 
BRANCH  40  42
ATOM     42  O   UNL d   1      20.368   5.177  16.043  0.00  0.00    -0.327 OA
BRANCH  42  43
ATOM     43  C   UNL d   1      20.682   5.702  17.339  0.00  0.00     0.274 C 
ATOM     44  C   UNL d   1      20.818   7.256  17.195  0.00  0.00     0.360 C 
ATOM     45  N   UNL d   1      19.599   7.861  16.667  0.00  0.00     0.621 N 
ATOM     46  C   UNL d   1      22.071   7.631  16.319  0.00  0.00     0.080 C 
ATOM     47  C   UNL d   1      23.338   6.959  16.963  0.00  0.00     0.184 C 
ATOM     48  O   UNL d   1      24.493   7.287  16.215  0.00  0.00    -0.221 OA
ATOM     49  C   UNL d   1      23.133   5.404  16.987  0.00  0.00     0.181 C 
ATOM     50  O   UNL d   1      21.927   5.111  17.797  0.00  0.00    -0.327 OA
BRANCH  49  51
ATOM     51  C   UNL d   1      24.274   4.675  17.613  0.00  0.00     0.214 C 
ATOM     52  O   UNL d   1      23.975   3.299  17.525  0.00  0.00    -0.218 OA
ENDBRANCH  49  51
ENDBRANCH  42  43
ENDBRANCH  40  42
ENDBRANCH  32  33
ENDBRANCH   1  32
TORSDOF 12
