3SKR_GNG_A_120
 OpenBabel10091713573D
Coordinates from PDB:3SKR:A:120 Model:1 without hydrogens
 19 21  0  0  0  0  0  0  0  0999 V2000
   18.3640    2.4210   33.4330 O   0  0  0  0  0  0  0  0  0  0  0  0
   18.2910    3.7520   32.8960 C   0  0  0  0  0  0  0  0  0  0  0  0
   18.8220    4.7710   33.9020 C   0  0  1  0  0  0  0  0  0  0  0  0
   18.5410    4.3380   35.2380 O   0  0  0  0  0  0  0  0  0  0  0  0
   19.7500    3.9600   35.9350 C   0  0  1  0  0  0  0  0  0  0  0  0
   19.5380    2.6240   36.5630 N   0  0  0  0  0  0  0  0  0  0  0  0
   19.8370    1.4180   36.0630 C   0  0  0  0  0  0  0  0  0  0  0  0
   19.4480    0.4690   36.9430 N   0  0  0  0  0  0  0  0  0  0  0  0
   18.9030    1.1010   38.0040 C   0  0  0  0  0  0  0  0  0  0  0  0
   18.9630    2.4540   37.7460 C   0  0  0  0  0  0  0  0  0  0  0  0
   18.4840    3.3340   38.6450 N   0  0  0  0  0  0  0  0  0  0  0  0
   17.9370    2.9180   39.8070 C   0  0  0  0  0  0  0  0  0  0  0  0
   17.8360    1.6050   40.1300 N   0  0  0  0  0  0  0  0  0  0  0  0
   18.2920    0.6560   39.2910 C   0  0  0  0  0  0  0  0  0  0  0  0
   18.2020   -0.5580   39.5940 O   0  0  0  0  0  0  0  0  0  0  0  0
   17.4840    3.8560   40.6690 N   0  0  0  0  0  0  0  0  0  0  0  0
   20.8810    4.0090   34.9120 C   0  0  0  0  0  0  0  0  0  0  0  0
   20.3280    4.9020   33.8140 C   0  0  2  0  0  0  0  0  0  0  0  0
   20.6650    6.2600   34.1070 O   0  0  0  0  0  0  0  0  0  0  0  0
  1  2  1  0  0  0  0
  3  2  1  6  0  0  0
  3  4  1  0  0  0  0
  3 18  1  0  0  0  0
  4  5  1  0  0  0  0
  5  6  1  6  0  0  0
  5 17  1  0  0  0  0
  6  7  1  0  0  0  0
  6 10  1  0  0  0  0
  7  8  2  0  0  0  0
  8  9  1  0  0  0  0
  9 10  2  0  0  0  0
  9 14  1  0  0  0  0
 10 11  1  0  0  0  0
 11 12  1  0  0  0  0
 12 13  2  0  0  0  0
 12 16  1  0  0  0  0
 13 14  1  0  0  0  0
 14 15  2  0  0  0  0
 17 18  1  0  0  0  0
 18 19  1  1  0  0  0
A    1
O5'
A    2
C5'
A    3
C4'
A    4
O4'
A    5
C1'
A    6
N9
A    7
C8
A    8
N7
A    9
C5
A   10
C4
A   11
N3
A   12
C2
A   13
N1
A   14
C6
A   15
O6
A   16
N2
A   17
C2'
A   18
C3'
A   19
O3'
M  END
>  <InstanceId>
3SKR_GNG_A_120

>  <ChemCompId>
GNG

>  <PdbId>
3SKR

>  <ChainId>
A

>  <ResidueNumber>
120

>  <InsertionCode>


>  <Model>
1

>  <AltIds>


>  <MissingHeavyAtoms>
0

>  <ObservedFormula>
C10 N5 O4

>  <Name>
2'-DEOXY-GUANOSINE

>  <SystematicName>
2-amino-9-[(2R,4S,5R)-4-hydroxy-5-(hydroxymethyl)oxolan-2-yl]-3H-purin-6-one

>  <Synonyms>


>  <Type>
NON-POLYMER

>  <Formula>
C10 H13 N5 O4

>  <MolecularWeight>
267.241

>  <ModifiedDate>
2011-06-04

>  <Parent>
G

>  <OneLetterCode>


>  <SubcomponentList>


>  <AmbiguousFlag>
N

>  <InChI>
InChI=1S/C10H13N5O4/c11-10-13-8-7(9(18)14-10)12-3-15(8)6-1-4(17)5(2-16)19-6/h3-6,16-17H,1-2H2,(H3,11,13,14,18)/t4-,5+,6+/m0/s1

>  <InChIKey>
YKBGVTZYEHREMT-KVQBGUIXSA-N

>  <SMILES>
c1nc2c(n1[C@H]3C[C@@H]([C@H](O3)CO)O)NC(=NC2=O)N

$$$$
