@<TRIPOS>MOLECULE
3SKR_GNG_A_120
 19 21 0 0 0
SMALL
GASTEIGER
****
Coordinates from PDB:3SKR:A:120 Model:1 without hydrogens
@<TRIPOS>ATOM
      1 O5*        18.3640    2.4210   33.4330 O.3     1    G1       -0.2176
      2 C5*        18.2910    3.7520   32.8960 C.3     1    G1        0.2141
      3 C4*        18.8220    4.7710   33.9020 C.3     1    G1        0.1804
      4 O4*        18.5410    4.3380   35.2380 O.3     1    G1       -0.3325
      5 C1*        19.7500    3.9600   35.9350 C.3     1    G1        0.2095
      6 N9         19.5380    2.6240   36.5630 N.ar    1    G1       -0.2713
      7 C8         19.8370    1.4180   36.0630 C.ar    1    G1        0.1816
      8 N7         19.4480    0.4690   36.9430 N.ar    1    G1       -0.2173
      9 C5         18.9030    1.1010   38.0040 C.ar    1    G1        0.1748
     10 C4         18.9630    2.4540   37.7460 C.ar    1    G1        0.1722
     11 N3         18.4840    3.3340   38.6450 N.ar    1    G1       -0.1918
     12 C2         17.9370    2.9180   39.8070 C.ar    1    G1        0.2606
     13 N1         17.8360    1.6050   40.1300 N.ar    1    G1       -0.1709
     14 C6         18.2920    0.6560   39.2910 C.ar    1    G1        0.3023
     15 O6         18.2020   -0.5580   39.5940 O.2     1    G1       -0.2633
     16 N2         17.4840    3.8560   40.6690 N.pl3   1    G1       -0.0859
     17 C2*        20.8810    4.0090   34.9120 C.3     1    G1        0.0894
     18 C3*        20.3280    4.9020   33.8140 C.3     1    G1        0.1860
     19 O3*        20.6650    6.2600   34.1070 O.3     1    G1       -0.2203
@<TRIPOS>BOND
     1     1     2    1
     2     3     2    1
     3     3     4    1
     4     3    18    1
     5     4     5    1
     6     5     6    1
     7     5    17    1
     8     6     7   ar
     9     6    10   ar
    10     7     8   ar
    11     8     9   ar
    12     9    10   ar
    13     9    14   ar
    14    10    11   ar
    15    11    12   ar
    16    12    13   ar
    17    12    16    1
    18    13    14   ar
    19    14    15    2
    20    17    18    1
    21    18    19    1
