REMARK  2 active torsions:
REMARK  status: ('A' for Active; 'I' for Inactive)
REMARK    1  A    between atoms: C4*_3  and  C5*_2 
REMARK    2  A    between atoms: C1*_5  and  N9_6 
ROOT
ATOM      1  N9   G1 d          19.538   2.624  36.563  0.00  0.00    -0.271 N 
ATOM      2  C8   G1 d          19.837   1.418  36.063  0.00  0.00     0.182 A 
ATOM      3  N7   G1 d          19.448   0.469  36.943  0.00  0.00    -0.217 NA
ATOM      4  C5   G1 d          18.903   1.101  38.004  0.00  0.00     0.176 A 
ATOM      5  C4   G1 d          18.963   2.454  37.746  0.00  0.00     0.188 A 
ATOM      6  N3   G1 d          18.484   3.334  38.645  0.00  0.00    -0.038 NA
ATOM      7  C2   G1 d          17.937   2.918  39.807  0.00  0.00     0.773 A 
ATOM      8  N1   G1 d          17.836   1.605  40.130  0.00  0.00    -0.016 NA
ATOM      9  C6   G1 d          18.292   0.656  39.291  0.00  0.00     0.316 A 
ATOM     10  O6   G1 d          18.202  -0.558  39.594  0.00  0.00    -0.263 OA
ATOM     11  N2   G1 d          17.484   3.856  40.669  0.00  0.00     0.062 N 
ENDROOT
BRANCH   1  12
ATOM     12  C1*  G1 d          19.750   3.960  35.935  0.00  0.00     0.210 C 
ATOM     13  O4*  G1 d          18.541   4.338  35.238  0.00  0.00    -0.333 OA
ATOM     14  C4*  G1 d          18.822   4.771  33.902  0.00  0.00     0.181 C 
ATOM     15  C3*  G1 d          20.328   4.902  33.814  0.00  0.00     0.186 C 
ATOM     16  C2*  G1 d          20.881   4.009  34.912  0.00  0.00     0.090 C 
ATOM     17  O3*  G1 d          20.665   6.260  34.107  0.00  0.00    -0.221 OA
BRANCH  14  18
ATOM     18  C5*  G1 d          18.291   3.752  32.896  0.00  0.00     0.214 C 
ATOM     19  O5*  G1 d          18.364   2.421  33.433  0.00  0.00    -0.218 OA
ENDBRANCH  14  18
ENDBRANCH   1  12
TORSDOF 2
