3SKR_GNG_A_120
 OpenBabel10091713573D
Coordinates from PDB:3SKR:A:120 Model:1 without hydrogens
 32 34  0  0  1  0  0  0  0  0999 V2000
   18.3640    2.4210   33.4330 O   0  0  0  0  0  0  0  0  0  0  0  0
   18.2910    3.7520   32.8960 C   0  0  0  0  0  0  0  0  0  0  0  0
   18.8220    4.7710   33.9020 C   0  0  1  0  0  0  0  0  0  0  0  0
   18.5410    4.3380   35.2380 O   0  0  0  0  0  0  0  0  0  0  0  0
   19.7500    3.9600   35.9350 C   0  0  1  0  0  0  0  0  0  0  0  0
   19.5380    2.6240   36.5630 N   0  0  0  0  0  0  0  0  0  0  0  0
   19.8370    1.4180   36.0630 C   0  0  0  0  0  0  0  0  0  0  0  0
   19.4480    0.4690   36.9430 N   0  0  0  0  0  0  0  0  0  0  0  0
   18.9030    1.1010   38.0040 C   0  0  0  0  0  0  0  0  0  0  0  0
   18.9630    2.4540   37.7460 C   0  0  0  0  0  0  0  0  0  0  0  0
   18.4840    3.3340   38.6450 N   0  0  0  0  0  0  0  0  0  0  0  0
   17.9370    2.9180   39.8070 C   0  0  0  0  0  0  0  0  0  0  0  0
   17.8360    1.6050   40.1300 N   0  0  0  0  0  0  0  0  0  0  0  0
   18.2920    0.6560   39.2910 C   0  0  0  0  0  0  0  0  0  0  0  0
   18.2020   -0.5580   39.5940 O   0  0  0  0  0  0  0  0  0  0  0  0
   17.4840    3.8560   40.6690 N   0  0  0  0  0  0  0  0  0  0  0  0
   20.8810    4.0090   34.9120 C   0  0  0  0  0  0  0  0  0  0  0  0
   20.3280    4.9020   33.8140 C   0  0  2  0  0  0  0  0  0  0  0  0
   20.6650    6.2600   34.1070 O   0  0  0  0  0  0  0  0  0  0  0  0
   18.0228    1.7898   32.7802 H   0  0  0  0  0  0  0  0  0  0  0  0
   17.2715    3.9829   32.6673 H   0  0  0  0  0  0  0  0  0  0  0  0
   18.8903    3.7987   32.0108 H   0  0  0  0  0  0  0  0  0  0  0  0
   18.3467    5.7022   33.6743 H   0  0  0  0  0  0  0  0  0  0  0  0
   20.0098    4.6198   36.7363 H   0  0  0  0  0  0  0  0  0  0  0  0
   20.2909    1.2419   35.1531 H   0  0  0  0  0  0  0  0  0  0  0  0
   18.5335    4.2981   38.4517 H   0  0  0  0  0  0  0  0  0  0  0  0
   17.5549    4.8107   40.4394 H   0  0  0  0  0  0  0  0  0  0  0  0
   17.0833    3.5843   41.5262 H   0  0  0  0  0  0  0  0  0  0  0  0
   21.0993    3.0313   34.5361 H   0  0  0  0  0  0  0  0  0  0  0  0
   21.7991    4.3739   35.3230 H   0  0  0  0  0  0  0  0  0  0  0  0
   20.7131    4.6331   32.8526 H   0  0  0  0  0  0  0  0  0  0  0  0
   20.3140    6.4993   34.9790 H   0  0  0  0  0  0  0  0  0  0  0  0
  1  2  1  0  0  0  0
  1 20  1  0  0  0  0
  2  3  1  0  0  0  0
  2 21  1  0  0  0  0
  2 22  1  0  0  0  0
  3  4  1  0  0  0  0
  3 18  1  0  0  0  0
  3 23  1  6  0  0  0
  4  5  1  0  0  0  0
  5  6  1  0  0  0  0
  5 17  1  0  0  0  0
  5 24  1  1  0  0  0
  6  7  1  0  0  0  0
  6 10  1  0  0  0  0
  7  8  2  0  0  0  0
  7 25  1  0  0  0  0
  8  9  1  0  0  0  0
  9 10  2  0  0  0  0
  9 14  1  0  0  0  0
 10 11  1  0  0  0  0
 11 12  1  0  0  0  0
 11 26  1  0  0  0  0
 12 13  2  0  0  0  0
 12 16  1  0  0  0  0
 13 14  1  0  0  0  0
 14 15  2  0  0  0  0
 16 27  1  0  0  0  0
 16 28  1  0  0  0  0
 17 18  1  0  0  0  0
 17 29  1  0  0  0  0
 17 30  1  0  0  0  0
 18 19  1  0  0  0  0
 18 31  1  6  0  0  0
 19 32  1  0  0  0  0
M  END
$$$$
