@<TRIPOS>MOLECULE
2FCZ_RIO_A_1024
 65 67 0 0 0
SMALL
GASTEIGER

@<TRIPOS>ATOM
      1 O           0.8997    4.7447    7.5849 O.3     1  UNL1       -0.3924
      2 C           1.1167    3.8343    6.5036 C.3     1  UNL1        0.0730
      3 C           2.6008    3.8009    6.1406 C.3     1  UNL1        0.1131
      4 H           2.9420    4.8202    5.9167 H       1  UNL1        0.0647
      5 O           3.3690    3.3063    7.2442 O.3     1  UNL1       -0.3405
      6 C           4.6520    2.9303    6.7471 C.3     1  UNL1        0.1884
      7 H           5.3265    3.7871    6.8277 H       1  UNL1        0.0938
      8 O           5.1790    1.8140    7.4682 O.3     1  UNL1       -0.3402
      9 C           5.5692    2.0580    8.8564 C.3     1  UNL1        0.1166
     10 H           5.7623    1.0563    9.2145 H       1  UNL1        0.0650
     11 C           4.3804    2.4998    9.7290 C.3     1  UNL1        0.0990
     12 H           3.8447    3.3419    9.2997 H       1  UNL1        0.0636
     13 O           3.4485    1.4036    9.8135 O.3     1  UNL1       -0.3876
     14 C           4.7863    2.9208   11.1457 C.3     1  UNL1        0.0351
     15 H           5.1842    2.0588   11.6926 H       1  UNL1        0.0485
     16 N           3.5997    3.3889   11.8831 N.3     1  UNL1       -0.3250
     17 C           5.8316    4.0329   11.0550 C.3     1  UNL1       -0.0175
     18 C           7.1130    3.4719   10.4364 C.3     1  UNL1        0.0355
     19 H           7.4620    2.7037   11.1270 H       1  UNL1        0.0485
     20 N           8.1533    4.5090   10.4112 N.3     1  UNL1       -0.3250
     21 C           6.8989    2.8626    9.0128 C.3     1  UNL1        0.1055
     22 H           6.8476    3.6995    8.3103 H       1  UNL1        0.0639
     23 O           8.0607    2.0982    8.5300 O.3     1  UNL1       -0.3422
     24 C           8.5506    1.0509    9.3970 C.3     1  UNL1        0.1776
     25 H           8.7018    1.4441   10.4037 H       1  UNL1        0.0927
     26 O           7.6142   -0.0246    9.4885 O.3     1  UNL1       -0.3425
     27 C           7.4091   -0.6836    8.2282 C.3     1  UNL1        0.1022
     28 H           7.1370    0.0490    7.4576 H       1  UNL1        0.0636
     29 C           6.2125   -1.6370    8.4005 C.3     1  UNL1        0.0222
     30 N           5.8778   -2.3859    7.1824 N.3     1  UNL1       -0.3276
     31 C           8.7004   -1.3925    7.8026 C.3     1  UNL1        0.1100
     32 H           8.9734   -2.1638    8.5312 H       1  UNL1        0.0646
     33 O           8.5773   -2.0360    6.5280 O.3     1  UNL1       -0.3866
     34 C           9.8325   -0.3591    7.6994 C.3     1  UNL1        0.1033
     35 H           9.6736    0.2888    6.8297 H       1  UNL1        0.0637
     36 O          11.0747   -1.0498    7.4632 O.3     1  UNL1       -0.3874
     37 C           9.9403    0.4761    8.9857 C.3     1  UNL1        0.0853
     38 H          10.2493   -0.2154    9.7823 H       1  UNL1        0.0535
     39 N          11.0247    1.4797    8.8889 N.3     1  UNL1       -0.3211
     40 C           4.4328    2.5764    5.2527 C.3     1  UNL1        0.1341
     41 H           4.7106    1.5476    4.9995 H       1  UNL1        0.0671
     42 O           5.1694    3.4531    4.3802 O.3     1  UNL1       -0.3841
     43 C           2.9363    2.8227    5.0304 C.3     1  UNL1        0.1141
     44 H           2.3871    1.8853    5.1780 H       1  UNL1        0.0648
     45 O           2.6384    3.3258    3.7360 O.3     1  UNL1       -0.3864
     46 H          -0.0240    4.6331    7.8699 H       1  UNL1        0.2095
     47 H           0.5129    4.1689    5.6555 H       1  UNL1        0.0584
     48 H           0.7721    2.8476    6.8309 H       1  UNL1        0.0584
     49 H           3.3348    1.0854    8.8959 H       1  UNL1        0.2100
     50 H           2.9051    2.6363   11.8155 H       1  UNL1        0.1185
     51 H           3.1670    4.1606   11.3689 H       1  UNL1        0.1185
     52 H           6.0413    4.4228   12.0573 H       1  UNL1        0.0297
     53 H           5.4502    4.8750   10.4605 H       1  UNL1        0.0297
     54 H           8.3404    4.8331   11.3583 H       1  UNL1        0.1185
     55 H           7.8283    5.3302    9.8965 H       1  UNL1        0.1185
     56 H           5.3306   -1.0682    8.7127 H       1  UNL1        0.0448
     57 H           6.4179   -2.3364    9.2161 H       1  UNL1        0.0448
     58 H           5.4175   -1.7475    6.5266 H       1  UNL1        0.1183
     59 H           5.1521   -3.0642    7.4245 H       1  UNL1        0.1183
     60 H           7.6885   -2.4605    6.5276 H       1  UNL1        0.2100
     61 H          10.8571   -1.7472    6.8124 H       1  UNL1        0.2100
     62 H          10.7474    2.1952    8.2169 H       1  UNL1        0.1187
     63 H          11.8319    1.0036    8.4781 H       1  UNL1        0.1187
     64 H           6.1158    3.2553    4.5145 H       1  UNL1        0.2101
     65 H           3.4884    3.6706    3.3873 H       1  UNL1        0.2100
@<TRIPOS>BOND
     1     1     2    1
     2     1    46    1
     3     2     3    1
     4     2    47    1
     5     2    48    1
     6     3     4    1
     7     3     5    1
     8     3    43    1
     9     5     6    1
    10     6    40    1
    11     6     8    1
    12     6     7    1
    13     9    11    1
    14     9    10    1
    15     9     8    1
    16    11    12    1
    17    11    13    1
    18    11    14    1
    19    13    49    1
    20    14    15    1
    21    14    16    1
    22    14    17    1
    23    16    50    1
    24    16    51    1
    25    17    18    1
    26    17    52    1
    27    17    53    1
    28    18    19    1
    29    18    20    1
    30    18    21    1
    31    20    54    1
    32    20    55    1
    33    21     9    1
    34    21    23    1
    35    21    22    1
    36    23    24    1
    37    24    25    1
    38    24    26    1
    39    24    37    1
    40    26    27    1
    41    27    28    1
    42    27    29    1
    43    27    31    1
    44    29    30    1
    45    29    56    1
    46    29    57    1
    47    30    58    1
    48    30    59    1
    49    31    33    1
    50    31    32    1
    51    33    60    1
    52    34    31    1
    53    34    35    1
    54    34    36    1
    55    36    61    1
    56    37    34    1
    57    37    39    1
    58    37    38    1
    59    39    62    1
    60    39    63    1
    61    40    41    1
    62    40    42    1
    63    40    43    1
    64    42    64    1
    65    43    44    1
    66    43    45    1
    67    45    65    1
