REMARK  16 active torsions:
REMARK  status: ('A' for Active; 'I' for Inactive)
REMARK    1  A    between atoms: O_1  and  C_2 
REMARK    2  A    between atoms: C_2  and  C_3 
REMARK    3  A    between atoms: C_5  and  O_6 
REMARK    4  A    between atoms: C_7  and  O_6 
REMARK    5  A    between atoms: C_8  and  O_9 
REMARK    6  A    between atoms: C_10  and  N_11 
REMARK    7  A    between atoms: C_13  and  N_14 
REMARK    8  A    between atoms: C_15  and  O_16 
REMARK    9  A    between atoms: O_16  and  C_17 
REMARK   10  A    between atoms: C_19  and  C_20 
REMARK   11  A    between atoms: C_20  and  N_21 
REMARK   12  A    between atoms: C_22  and  O_23 
REMARK   13  A    between atoms: C_24  and  O_25 
REMARK   14  A    between atoms: C_26  and  N_27 
REMARK   15  A    between atoms: C_28  and  O_29 
REMARK   16  A    between atoms: C_30  and  O_31 
ROOT
ATOM      1  C   UNL d   1       5.569   2.058   8.856  0.00  0.00     0.186 C 
ATOM      2  C   UNL d   1       4.380   2.500   9.729  0.00  0.00     0.182 C 
ATOM      3  C   UNL d   1       4.786   2.921  11.146  0.00  0.00     0.251 C 
ATOM      4  C   UNL d   1       5.832   4.033  11.055  0.00  0.00     0.076 C 
ATOM      5  C   UNL d   1       7.113   3.472  10.436  0.00  0.00     0.251 C 
ATOM      6  C   UNL d   1       6.899   2.863   9.013  0.00  0.00     0.189 C 
ENDROOT
BRANCH   6   7
ATOM      7  O   UNL d   1       8.061   2.098   8.530  0.00  0.00    -0.349 OA
BRANCH   7   8
ATOM      8  C   UNL d   1       8.551   1.051   9.397  0.00  0.00     0.296 C 
ATOM      9  O   UNL d   1       7.614  -0.025   9.489  0.00  0.00    -0.349 OA
ATOM     10  C   UNL d   1       7.409  -0.684   8.228  0.00  0.00     0.183 C 
ATOM     11  C   UNL d   1       8.700  -1.393   7.803  0.00  0.00     0.179 C 
ATOM     12  C   UNL d   1       9.832  -0.359   7.699  0.00  0.00     0.187 C 
ATOM     13  C   UNL d   1       9.940   0.476   8.986  0.00  0.00     0.303 C 
BRANCH  10  14
ATOM     14  C   UNL d   1       6.213  -1.637   8.400  0.00  0.00     0.301 C 
BRANCH  14  15
ATOM     15  N   UNL d   1       5.878  -2.386   7.182  0.00  0.00     0.080 N 
ATOM     16  H   UNL d   1       5.418  -1.748   6.527  0.00  0.00     0.312 HD
ATOM     17  H   UNL d   1       5.152  -3.064   7.425  0.00  0.00     0.312 HD
ENDBRANCH  14  15
ENDBRANCH  10  14
BRANCH  11  18
ATOM     18  O   UNL d   1       8.577  -2.036   6.528  0.00  0.00    -0.390 OA
ATOM     19  H   UNL d   1       7.689  -2.461   6.528  0.00  0.00     0.210 HD
ENDBRANCH  11  18
BRANCH  12  20
ATOM     20  O   UNL d   1      11.075  -1.050   7.463  0.00  0.00    -0.391 OA
ATOM     21  H   UNL d   1      10.857  -1.747   6.812  0.00  0.00     0.210 HD
ENDBRANCH  12  20
BRANCH  13  22
ATOM     22  N   UNL d   1      11.025   1.480   8.889  0.00  0.00     0.090 N 
ATOM     23  H   UNL d   1      10.747   2.195   8.217  0.00  0.00     0.313 HD
ATOM     24  H   UNL d   1      11.832   1.004   8.478  0.00  0.00     0.313 HD
ENDBRANCH  13  22
ENDBRANCH   7   8
ENDBRANCH   6   7
BRANCH   5  25
ATOM     25  N   UNL d   1       8.153   4.509  10.411  0.00  0.00     0.085 N 
ATOM     26  H   UNL d   1       8.340   4.833  11.358  0.00  0.00     0.313 HD
ATOM     27  H   UNL d   1       7.828   5.330   9.896  0.00  0.00     0.313 HD
ENDBRANCH   5  25
BRANCH   1  28
ATOM     28  O   UNL d   1       5.179   1.814   7.468  0.00  0.00    -0.348 OA
BRANCH  28  29
ATOM     29  C   UNL d   1       4.652   2.930   6.747  0.00  0.00     0.292 C 
ATOM     30  O   UNL d   1       3.369   3.306   7.244  0.00  0.00    -0.348 OA
ATOM     31  C   UNL d   1       2.601   3.801   6.141  0.00  0.00     0.179 C 
ATOM     32  C   UNL d   1       2.936   2.823   5.030  0.00  0.00     0.182 C 
ATOM     33  C   UNL d   1       4.433   2.576   5.253  0.00  0.00     0.204 C 
BRANCH  31  34
ATOM     34  C   UNL d   1       1.117   3.834   6.504  0.00  0.00     0.198 C 
BRANCH  34  35
ATOM     35  O   UNL d   1       0.900   4.745   7.585  0.00  0.00    -0.398 OA
ATOM     36  H   UNL d   1      -0.024   4.633   7.870  0.00  0.00     0.209 HD
ENDBRANCH  34  35
ENDBRANCH  31  34
BRANCH  32  37
ATOM     37  O   UNL d   1       2.638   3.326   3.736  0.00  0.00    -0.390 OA
ATOM     38  H   UNL d   1       3.488   3.671   3.387  0.00  0.00     0.210 HD
ENDBRANCH  32  37
BRANCH  33  39
ATOM     39  O   UNL d   1       5.169   3.453   4.380  0.00  0.00    -0.388 OA
ATOM     40  H   UNL d   1       6.116   3.255   4.514  0.00  0.00     0.210 HD
ENDBRANCH  33  39
ENDBRANCH  28  29
ENDBRANCH   1  28
BRANCH   2  41
ATOM     41  O   UNL d   1       3.449   1.404   9.813  0.00  0.00    -0.391 OA
ATOM     42  H   UNL d   1       3.335   1.085   8.896  0.00  0.00     0.210 HD
ENDBRANCH   2  41
BRANCH   3  43
ATOM     43  N   UNL d   1       3.600   3.389  11.883  0.00  0.00     0.085 N 
ATOM     44  H   UNL d   1       2.905   2.636  11.816  0.00  0.00     0.313 HD
ATOM     45  H   UNL d   1       3.167   4.161  11.369  0.00  0.00     0.313 HD
ENDBRANCH   3  43
TORSDOF 16
