2FCZ_RIO_A_1024
 OpenBabel03221817233D

 65 67  0  0  1  0  0  0  0  0999 V2000
    0.8997    4.7447    7.5849 O   0  0  0  0  0  0  0  0  0  0  0  0
    1.1167    3.8343    6.5036 C   0  0  0  0  0  0  0  0  0  0  0  0
    2.6008    3.8009    6.1406 C   0  0  1  0  0  0  0  0  0  0  0  0
    2.9420    4.8202    5.9167 H   0  0  0  0  0  0  0  0  0  0  0  0
    3.3690    3.3063    7.2442 O   0  0  0  0  0  0  0  0  0  0  0  0
    4.6520    2.9303    6.7471 C   0  0  1  0  0  0  0  0  0  0  0  0
    5.3265    3.7871    6.8277 H   0  0  0  0  0  0  0  0  0  0  0  0
    5.1790    1.8140    7.4682 O   0  0  0  0  0  0  0  0  0  0  0  0
    5.5692    2.0580    8.8564 C   0  0  2  0  0  0  0  0  0  0  0  0
    5.7623    1.0563    9.2145 H   0  0  0  0  0  0  0  0  0  0  0  0
    4.3804    2.4998    9.7290 C   0  0  1  0  0  0  0  0  0  0  0  0
    3.8447    3.3419    9.2997 H   0  0  0  0  0  0  0  0  0  0  0  0
    3.4485    1.4036    9.8135 O   0  0  0  0  0  0  0  0  0  0  0  0
    4.7863    2.9208   11.1457 C   0  0  2  0  0  0  0  0  0  0  0  0
    5.1842    2.0588   11.6926 H   0  0  0  0  0  0  0  0  0  0  0  0
    3.5997    3.3889   11.8831 N   0  0  0  0  0  0  0  0  0  0  0  0
    5.8316    4.0329   11.0550 C   0  0  0  0  0  0  0  0  0  0  0  0
    7.1130    3.4719   10.4364 C   0  0  2  0  0  0  0  0  0  0  0  0
    7.4620    2.7037   11.1270 H   0  0  0  0  0  0  0  0  0  0  0  0
    8.1533    4.5090   10.4112 N   0  0  0  0  0  0  0  0  0  0  0  0
    6.8989    2.8626    9.0128 C   0  0  1  0  0  0  0  0  0  0  0  0
    6.8476    3.6995    8.3103 H   0  0  0  0  0  0  0  0  0  0  0  0
    8.0607    2.0982    8.5300 O   0  0  0  0  0  0  0  0  0  0  0  0
    8.5506    1.0509    9.3970 C   0  0  1  0  0  0  0  0  0  0  0  0
    8.7018    1.4441   10.4037 H   0  0  0  0  0  0  0  0  0  0  0  0
    7.6142   -0.0246    9.4885 O   0  0  0  0  0  0  0  0  0  0  0  0
    7.4091   -0.6836    8.2282 C   0  0  2  0  0  0  0  0  0  0  0  0
    7.1370    0.0490    7.4576 H   0  0  0  0  0  0  0  0  0  0  0  0
    6.2125   -1.6370    8.4005 C   0  0  0  0  0  0  0  0  0  0  0  0
    5.8778   -2.3859    7.1824 N   0  0  0  0  0  0  0  0  0  0  0  0
    8.7004   -1.3925    7.8026 C   0  0  1  0  0  0  0  0  0  0  0  0
    8.9734   -2.1638    8.5312 H   0  0  0  0  0  0  0  0  0  0  0  0
    8.5773   -2.0360    6.5280 O   0  0  0  0  0  0  0  0  0  0  0  0
    9.8325   -0.3591    7.6994 C   0  0  2  0  0  0  0  0  0  0  0  0
    9.6736    0.2888    6.8297 H   0  0  0  0  0  0  0  0  0  0  0  0
   11.0747   -1.0498    7.4632 O   0  0  0  0  0  0  0  0  0  0  0  0
    9.9403    0.4761    8.9857 C   0  0  1  0  0  0  0  0  0  0  0  0
   10.2493   -0.2154    9.7823 H   0  0  0  0  0  0  0  0  0  0  0  0
   11.0247    1.4797    8.8889 N   0  0  0  0  0  0  0  0  0  0  0  0
    4.4328    2.5764    5.2527 C   0  0  2  0  0  0  0  0  0  0  0  0
    4.7106    1.5476    4.9995 H   0  0  0  0  0  0  0  0  0  0  0  0
    5.1694    3.4531    4.3802 O   0  0  0  0  0  0  0  0  0  0  0  0
    2.9363    2.8227    5.0304 C   0  0  2  0  0  0  0  0  0  0  0  0
    2.3871    1.8853    5.1780 H   0  0  0  0  0  0  0  0  0  0  0  0
    2.6384    3.3258    3.7360 O   0  0  0  0  0  0  0  0  0  0  0  0
   -0.0240    4.6331    7.8699 H   0  0  0  0  0  0  0  0  0  0  0  0
    0.5129    4.1689    5.6555 H   0  0  0  0  0  0  0  0  0  0  0  0
    0.7721    2.8476    6.8309 H   0  0  0  0  0  0  0  0  0  0  0  0
    3.3348    1.0854    8.8959 H   0  0  0  0  0  0  0  0  0  0  0  0
    2.9051    2.6363   11.8155 H   0  0  0  0  0  0  0  0  0  0  0  0
    3.1670    4.1606   11.3689 H   0  0  0  0  0  0  0  0  0  0  0  0
    6.0413    4.4228   12.0573 H   0  0  0  0  0  0  0  0  0  0  0  0
    5.4502    4.8750   10.4605 H   0  0  0  0  0  0  0  0  0  0  0  0
    8.3404    4.8331   11.3583 H   0  0  0  0  0  0  0  0  0  0  0  0
    7.8283    5.3302    9.8965 H   0  0  0  0  0  0  0  0  0  0  0  0
    5.3306   -1.0682    8.7127 H   0  0  0  0  0  0  0  0  0  0  0  0
    6.4179   -2.3364    9.2161 H   0  0  0  0  0  0  0  0  0  0  0  0
    5.4175   -1.7475    6.5266 H   0  0  0  0  0  0  0  0  0  0  0  0
    5.1521   -3.0642    7.4245 H   0  0  0  0  0  0  0  0  0  0  0  0
    7.6885   -2.4605    6.5276 H   0  0  0  0  0  0  0  0  0  0  0  0
   10.8571   -1.7472    6.8124 H   0  0  0  0  0  0  0  0  0  0  0  0
   10.7474    2.1952    8.2169 H   0  0  0  0  0  0  0  0  0  0  0  0
   11.8319    1.0036    8.4781 H   0  0  0  0  0  0  0  0  0  0  0  0
    6.1158    3.2553    4.5145 H   0  0  0  0  0  0  0  0  0  0  0  0
    3.4884    3.6706    3.3873 H   0  0  0  0  0  0  0  0  0  0  0  0
  1  2  1  0  0  0  0
  1 46  1  0  0  0  0
  2  3  1  0  0  0  0
  2 47  1  0  0  0  0
  2 48  1  0  0  0  0
  3  4  1  0  0  0  0
  3  5  1  0  0  0  0
  3 43  1  6  0  0  0
  5  6  1  0  0  0  0
  6 40  1  6  0  0  0
  6  8  1  0  0  0  0
  6  7  1  0  0  0  0
  9 11  1  1  0  0  0
  9 10  1  0  0  0  0
  9  8  1  0  0  0  0
 11 12  1  0  0  0  0
 11 13  1  0  0  0  0
 11 14  1  1  0  0  0
 13 49  1  0  0  0  0
 14 15  1  1  0  0  0
 14 16  1  0  0  0  0
 14 17  1  0  0  0  0
 16 50  1  0  0  0  0
 16 51  1  0  0  0  0
 17 18  1  0  0  0  0
 17 52  1  0  0  0  0
 17 53  1  0  0  0  0
 18 19  1  0  0  0  0
 18 20  1  0  0  0  0
 18 21  1  6  0  0  0
 20 54  1  0  0  0  0
 20 55  1  0  0  0  0
 21  9  1  6  0  0  0
 21 23  1  0  0  0  0
 21 22  1  0  0  0  0
 23 24  1  0  0  0  0
 24 25  1  0  0  0  0
 24 26  1  0  0  0  0
 24 37  1  6  0  0  0
 26 27  1  0  0  0  0
 27 28  1  0  0  0  0
 27 29  1  0  0  0  0
 27 31  1  6  0  0  0
 29 30  1  0  0  0  0
 29 56  1  0  0  0  0
 29 57  1  0  0  0  0
 30 58  1  0  0  0  0
 30 59  1  0  0  0  0
 31 33  1  0  0  0  0
 31 32  1  1  0  0  0
 33 60  1  0  0  0  0
 34 31  1  1  0  0  0
 34 35  1  0  0  0  0
 34 36  1  0  0  0  0
 36 61  1  0  0  0  0
 37 34  1  6  0  0  0
 37 39  1  0  0  0  0
 37 38  1  0  0  0  0
 39 62  1  0  0  0  0
 39 63  1  0  0  0  0
 40 41  1  0  0  0  0
 40 42  1  0  0  0  0
 40 43  1  6  0  0  0
 42 64  1  0  0  0  0
 43 44  1  1  0  0  0
 43 45  1  0  0  0  0
 45 65  1  0  0  0  0
M  END
$$$$
