3SKZ_GMP_A_120
 OpenBabel10091713573D
Coordinates from PDB:3SKZ:A:120 Model:1 without hydrogens
 20 22  0  0  0  0  0  0  0  0999 V2000
    7.2000   -7.5080  -59.7860 O   0  0  0  0  0  0  0  0  0  0  0  0
    8.1250   -6.4800  -59.4720 C   0  0  0  0  0  0  0  0  0  0  0  0
    8.6270   -6.6200  -58.0630 C   0  0  1  0  0  0  0  0  0  0  0  0
    8.5100   -5.3480  -57.3750 O   0  0  0  0  0  0  0  0  0  0  0  0
    7.8590   -7.5950  -57.1910 C   0  0  1  0  0  0  0  0  0  0  0  0
    8.2650   -8.9440  -57.3780 O   0  0  0  0  0  0  0  0  0  0  0  0
    8.1110   -7.0590  -55.7880 C   0  0  1  0  0  0  0  0  0  0  0  0
    9.4030   -7.4380  -55.3200 O   0  0  0  0  0  0  0  0  0  0  0  0
    8.1080   -5.5500  -56.0480 C   0  0  2  0  0  0  0  0  0  0  0  0
    6.7700   -4.9650  -55.9030 N   0  0  0  0  0  0  0  0  0  0  0  0
    5.6230   -5.6020  -55.6410 C   0  0  0  0  0  0  0  0  0  0  0  0
    4.6270   -4.6820  -55.6160 N   0  0  0  0  0  0  0  0  0  0  0  0
    5.1670   -3.4740  -55.8830 C   0  0  0  0  0  0  0  0  0  0  0  0
    4.6460   -2.1960  -55.9890 C   0  0  0  0  0  0  0  0  0  0  0  0
    3.4260   -2.0080  -55.8100 O   0  0  0  0  0  0  0  0  0  0  0  0
    5.4600   -1.1600  -56.2740 N   0  0  0  0  0  0  0  0  0  0  0  0
    6.7770   -1.3680  -56.4270 C   0  0  0  0  0  0  0  0  0  0  0  0
    7.5840   -0.3170  -56.7160 N   0  0  0  0  0  0  0  0  0  0  0  0
    7.3080   -2.6100  -56.3290 N   0  0  0  0  0  0  0  0  0  0  0  0
    6.5180   -3.6680  -56.0630 C   0  0  0  0  0  0  0  0  0  0  0  0
  1  2  1  0  0  0  0
  3  2  1  6  0  0  0
  3  4  1  0  0  0  0
  3  5  1  0  0  0  0
  4  9  1  0  0  0  0
  5  6  1  1  0  0  0
  5  7  1  0  0  0  0
  7  8  1  6  0  0  0
  7  9  1  0  0  0  0
  9 10  1  6  0  0  0
 10 11  1  0  0  0  0
 10 20  1  0  0  0  0
 11 12  2  0  0  0  0
 12 13  1  0  0  0  0
 13 14  1  0  0  0  0
 13 20  2  0  0  0  0
 14 15  2  0  0  0  0
 14 16  1  0  0  0  0
 16 17  1  0  0  0  0
 17 18  1  0  0  0  0
 17 19  2  0  0  0  0
 19 20  1  0  0  0  0
A    1
O5'
A    2
C5'
A    3
C4'
A    4
O4'
A    5
C3'
A    6
O3'
A    7
C2'
A    8
O2'
A    9
C1'
A   10
N9
A   11
C8
A   12
N7
A   13
C5
A   14
C6
A   15
O6
A   16
N1
A   17
C2
A   18
N2
A   19
N3
A   20
C4
M  END
>  <InstanceId>
3SKZ_GMP_A_120

>  <ChemCompId>
GMP

>  <PdbId>
3SKZ

>  <ChainId>
A

>  <ResidueNumber>
120

>  <InsertionCode>


>  <Model>
1

>  <AltIds>


>  <MissingHeavyAtoms>
0

>  <ObservedFormula>
C10 N5 O5

>  <Name>
GUANOSINE

>  <SystematicName>
2-amino-9-[(2R,3R,4S,5R)-3,4-dihydroxy-5-(hydroxymethyl)oxolan-2-yl]-1H-purin-6-one

>  <Synonyms>


>  <Type>
NON-POLYMER

>  <Formula>
C10 H13 N5 O5

>  <MolecularWeight>
283.241

>  <ModifiedDate>
2012-01-05

>  <Parent>


>  <OneLetterCode>


>  <SubcomponentList>


>  <AmbiguousFlag>
N

>  <InChI>
InChI=1S/C10H13N5O5/c11-10-13-7-4(8(19)14-10)12-2-15(7)9-6(18)5(17)3(1-16)20-9/h2-3,5-6,9,16-18H,1H2,(H3,11,13,14,19)/t3-,5-,6-,9-/m1/s1

>  <InChIKey>
NYHBQMYGNKIUIF-UUOKFMHZSA-N

>  <SMILES>
c1nc2c(n1[C@H]3[C@@H]([C@@H]([C@H](O3)CO)O)O)N=C(NC2=O)N

$$$$
