@<TRIPOS>MOLECULE
3SKZ_GMP_A_120
 20 22 0 0 0
SMALL
GASTEIGER
****
Coordinates from PDB:3SKZ:A:120 Model:1 without hydrogens
@<TRIPOS>ATOM
      1 O5*         7.2000   -7.5080  -59.7860 O.3     1    G1       -0.2176
      2 C5*         8.1250   -6.4800  -59.4720 C.3     1    G1        0.2142
      3 C4*         8.6270   -6.6200  -58.0630 C.3     1    G1        0.1831
      4 O4*         8.5100   -5.3480  -57.3750 O.3     1    G1       -0.3305
      5 C3*         7.8590   -7.5950  -57.1910 C.3     1    G1        0.2162
      6 O3*         8.2650   -8.9440  -57.3780 O.3     1    G1       -0.2175
      7 C2*         8.1110   -7.0590  -55.7880 C.3     1    G1        0.2337
      8 O2*         9.4030   -7.4380  -55.3200 O.3     1    G1       -0.2155
      9 C1*         8.1080   -5.5500  -56.0480 C.3     1    G1        0.2409
     10 N9          6.7700   -4.9650  -55.9030 N.ar    1    G1       -0.2693
     11 C8          5.6230   -5.6020  -55.6410 C.ar    1    G1        0.1817
     12 N7          4.6270   -4.6820  -55.6160 N.ar    1    G1       -0.2173
     13 C5          5.1670   -3.4740  -55.8830 C.ar    1    G1        0.1748
     14 C6          4.6460   -2.1960  -55.9890 C.ar    1    G1        0.3023
     15 O6          3.4260   -2.0080  -55.8100 O.2     1    G1       -0.2633
     16 N1          5.4600   -1.1600  -56.2740 N.ar    1    G1       -0.1709
     17 C2          6.7770   -1.3680  -56.4270 C.ar    1    G1        0.2606
     18 N2          7.5840   -0.3170  -56.7160 N.pl3   1    G1       -0.0859
     19 N3          7.3080   -2.6100  -56.3290 N.ar    1    G1       -0.1918
     20 C4          6.5180   -3.6680  -56.0630 C.ar    1    G1        0.1723
@<TRIPOS>BOND
     1     1     2    1
     2     3     2    1
     3     3     4    1
     4     3     5    1
     5     4     9    1
     6     5     6    1
     7     5     7    1
     8     7     8    1
     9     7     9    1
    10     9    10    1
    11    10    11   ar
    12    10    20   ar
    13    11    12   ar
    14    12    13   ar
    15    13    14   ar
    16    13    20   ar
    17    14    15    2
    18    14    16   ar
    19    16    17   ar
    20    17    18    1
    21    17    19   ar
    22    19    20   ar
