REMARK  2 active torsions:
REMARK  status: ('A' for Active; 'I' for Inactive)
REMARK    1  A    between atoms: C4*_3  and  C5*_2 
REMARK    2  A    between atoms: C1*_9  and  N9_10 
ROOT
ATOM      1  N9   G1 d           6.770  -4.965 -55.903  0.00  0.00    -0.269 N 
ATOM      2  C8   G1 d           5.623  -5.602 -55.641  0.00  0.00     0.182 A 
ATOM      3  N7   G1 d           4.627  -4.682 -55.616  0.00  0.00    -0.217 NA
ATOM      4  C5   G1 d           5.167  -3.474 -55.883  0.00  0.00     0.176 A 
ATOM      5  C6   G1 d           4.646  -2.196 -55.989  0.00  0.00     0.316 A 
ATOM      6  O6   G1 d           3.426  -2.008 -55.810  0.00  0.00    -0.263 OA
ATOM      7  N1   G1 d           5.460  -1.160 -56.274  0.00  0.00    -0.016 NA
ATOM      8  C2   G1 d           6.777  -1.368 -56.427  0.00  0.00     0.773 A 
ATOM      9  N2   G1 d           7.584  -0.317 -56.716  0.00  0.00     0.062 N 
ATOM     10  N3   G1 d           7.308  -2.610 -56.329  0.00  0.00    -0.038 NA
ATOM     11  C4   G1 d           6.518  -3.668 -56.063  0.00  0.00     0.188 A 
ENDROOT
BRANCH   1  12
ATOM     12  C1*  G1 d           8.108  -5.550 -56.048  0.00  0.00     0.241 C 
ATOM     13  O4*  G1 d           8.510  -5.348 -57.375  0.00  0.00    -0.331 OA
ATOM     14  C4*  G1 d           8.627  -6.620 -58.063  0.00  0.00     0.183 C 
ATOM     15  C3*  G1 d           7.859  -7.595 -57.191  0.00  0.00     0.216 C 
ATOM     16  O3*  G1 d           8.265  -8.944 -57.378  0.00  0.00    -0.218 OA
ATOM     17  C2*  G1 d           8.111  -7.059 -55.788  0.00  0.00     0.234 C 
ATOM     18  O2*  G1 d           9.403  -7.438 -55.320  0.00  0.00    -0.216 OA
BRANCH  14  19
ATOM     19  C5*  G1 d           8.125  -6.480 -59.472  0.00  0.00     0.214 C 
ATOM     20  O5*  G1 d           7.200  -7.508 -59.786  0.00  0.00    -0.218 OA
ENDBRANCH  14  19
ENDBRANCH   1  12
TORSDOF 2
