@<TRIPOS>MOLECULE
3RKF_DX4_A_91
 16 17 0 0 0
SMALL
GASTEIGER

@<TRIPOS>ATOM
      1 C          -0.1589    0.6650   -0.0101 C.ar    1  UNL1        0.1637
      2 C          -0.2532   -0.7083    0.0181 C.ar    1  UNL1        0.1383
      3 C           0.9845   -1.4380   -0.0061 C.ar    1  UNL1        0.1160
      4 S           1.0371   -3.0926    0.0208 S.2     1  UNL1       -0.0303
      5 N           2.1094   -0.6316   -0.0576 N.ar    1  UNL1       -0.3203
      6 H           3.0001   -1.0978   -0.1190 H       1  UNL1        0.1691
      7 C           2.0589    0.7514   -0.0910 C.ar    1  UNL1        0.1930
      8 N           3.2525    1.3921   -0.1544 N.pl3   1  UNL1       -0.3289
      9 N           0.9483    1.4415   -0.0610 N.ar    1  UNL1       -0.1967
     10 N          -1.5626   -1.1156    0.0491 N.ar    1  UNL1       -0.2317
     11 C          -2.2553    0.0059    0.0331 C.ar    1  UNL1        0.0957
     12 N          -1.4453    1.1121    0.0036 N.ar    1  UNL1       -0.3291
     13 H          -1.7351    2.0782   -0.0176 H       1  UNL1        0.1682
     14 H           4.0418    0.9520    0.2979 H       1  UNL1        0.1451
     15 H           3.1722    2.3817    0.0547 H       1  UNL1        0.1451
     16 H          -3.3347    0.0820    0.0386 H       1  UNL1        0.1027
@<TRIPOS>BOND
     1     1     2   ar
     2     1     9   ar
     3     1    12   ar
     4     2     3   ar
     5     2    10   ar
     6     3     4    2
     7     3     5   ar
     8     5     6    1
     9     5     7   ar
    10     7     8    1
    11     7     9   ar
    12     8    14    1
    13     8    15    1
    14    10    11   ar
    15    11    12   ar
    16    11    16    1
    17    12    13    1
