3RKF_DX4_A_91
 OpenBabel03221817303D

 16 17  0  0  0  0  0  0  0  0999 V2000
   -0.1589    0.6650   -0.0101 C   0  0  0  0  0  0  0  0  0  0  0  0
   -0.2532   -0.7083    0.0181 C   0  0  0  0  0  0  0  0  0  0  0  0
    0.9845   -1.4380   -0.0061 C   0  0  0  0  0  0  0  0  0  0  0  0
    1.0371   -3.0926    0.0208 S   0  0  0  0  0  0  0  0  0  0  0  0
    2.1094   -0.6316   -0.0576 N   0  0  0  0  0  0  0  0  0  0  0  0
    3.0001   -1.0978   -0.1190 H   0  0  0  0  0  0  0  0  0  0  0  0
    2.0589    0.7514   -0.0910 C   0  0  0  0  0  0  0  0  0  0  0  0
    3.2525    1.3921   -0.1544 N   0  0  0  0  0  0  0  0  0  0  0  0
    0.9483    1.4415   -0.0610 N   0  0  0  0  0  0  0  0  0  0  0  0
   -1.5626   -1.1156    0.0491 N   0  0  0  0  0  0  0  0  0  0  0  0
   -2.2553    0.0059    0.0331 C   0  0  0  0  0  0  0  0  0  0  0  0
   -1.4453    1.1121    0.0036 N   0  0  0  0  0  0  0  0  0  0  0  0
   -1.7351    2.0782   -0.0176 H   0  0  0  0  0  0  0  0  0  0  0  0
    4.0418    0.9520    0.2979 H   0  0  0  0  0  0  0  0  0  0  0  0
    3.1722    2.3817    0.0547 H   0  0  0  0  0  0  0  0  0  0  0  0
   -3.3347    0.0820    0.0386 H   0  0  0  0  0  0  0  0  0  0  0  0
  1  2  2  0  0  0  0
  1  9  1  0  0  0  0
  1 12  1  0  0  0  0
  2  3  1  0  0  0  0
  2 10  1  0  0  0  0
  3  4  2  0  0  0  0
  3  5  1  0  0  0  0
  5  6  1  0  0  0  0
  5  7  1  0  0  0  0
  7  8  1  0  0  0  0
  7  9  2  0  0  0  0
  8 14  1  0  0  0  0
  8 15  1  0  0  0  0
 10 11  2  0  0  0  0
 11 12  1  0  0  0  0
 11 16  1  0  0  0  0
 12 13  1  0  0  0  0
M  END
$$$$
