@<TRIPOS>MOLECULE
2L1V_PRF_A_37
 22 23 0 0 0
SMALL
GASTEIGER

@<TRIPOS>ATOM
      1 N           1.8580    1.5423   -0.3986 N.ar    1  UNL1       -0.2947
      2 H           2.3354    2.3157   -0.8529 H       1  UNL1        0.1716
      3 C           2.5076    0.9154    0.6876 C.ar    1  UNL1        0.1949
      4 N           2.0007   -0.1376    1.2892 N.ar    1  UNL1       -0.1982
      5 C           0.7062   -0.3772    0.9558 C.ar    1  UNL1        0.1472
      6 C          -0.0074    0.1373   -0.1073 C.ar    1  UNL1        0.0874
      7 C           0.5579    1.2559   -0.8282 C.ar    1  UNL1        0.2622
      8 O          -0.0569    1.9067   -1.6658 O.2     1  UNL1       -0.2670
      9 C          -1.2667   -0.5207   -0.1663 C.ar    1  UNL1       -0.0020
     10 C          -2.3647   -0.2875   -1.1462 C.3     1  UNL1        0.0208
     11 N          -3.0725    0.9384   -0.7992 N.3     1  UNL1       -0.3260
     12 C          -1.2639   -1.4336    0.8753 C.ar    1  UNL1        0.0087
     13 N          -0.0505   -1.3681    1.5176 N.ar    1  UNL1       -0.3453
     14 H           0.2351   -1.9633    2.2830 H       1  UNL1        0.1668
     15 N           3.7788    1.3792    0.9655 N.pl3   1  UNL1       -0.3289
     16 H          -1.9576   -0.2071   -2.1608 H       1  UNL1        0.0472
     17 H          -3.0715   -1.1249   -1.1542 H       1  UNL1        0.0472
     18 H          -2.4040    1.6931   -0.6451 H       1  UNL1        0.1185
     19 H          -3.5643    0.8093    0.0840 H       1  UNL1        0.1185
     20 H          -2.0190   -2.1321    1.2093 H       1  UNL1        0.0811
     21 H           3.8167    2.3206    1.3531 H       1  UNL1        0.1451
     22 H           4.3216    0.7586    1.5641 H       1  UNL1        0.1451
@<TRIPOS>BOND
     1     1     2    1
     2     3     1   ar
     3     4     3   ar
     4     5     4   ar
     5     6     5   ar
     6     7     6   ar
     7     7     1   ar
     8     8     7    2
     9     9     6   ar
    10    10     9    1
    11    11    10    1
    12    12     9   ar
    13    13    12   ar
    14    13    14    1
    15    13     5   ar
    16    15     3    1
    17    10    16    1
    18    10    17    1
    19    11    18    1
    20    11    19    1
    21    12    20    1
    22    15    21    1
    23    15    22    1
