REMARK  3 active torsions:
REMARK  status: ('A' for Active; 'I' for Inactive)
REMARK    1  A    between atoms: N_15  and  C_3 
REMARK    2  A    between atoms: C_10  and  C_9 
REMARK    3  A    between atoms: N_11  and  C_10 
ROOT
ATOM      1  N   UNL d   1       1.858   1.542  -0.399  0.00  0.00    -0.298 N 
ATOM      2  H   UNL d   1       2.335   2.316  -0.853  0.00  0.00     0.171 HD
ATOM      3  C   UNL d   1       2.508   0.915   0.688  0.00  0.00     0.181 C 
ATOM      4  N   UNL d   1       2.001  -0.138   1.289  0.00  0.00    -0.201 NA
ATOM      5  C   UNL d   1       0.706  -0.377   0.956  0.00  0.00     0.147 A 
ATOM      6  C   UNL d   1      -0.007   0.137  -0.107  0.00  0.00     0.087 A 
ATOM      7  C   UNL d   1       0.558   1.256  -0.828  0.00  0.00     0.262 C 
ATOM      8  O   UNL d   1      -0.057   1.907  -1.666  0.00  0.00    -0.267 OA
ATOM      9  C   UNL d   1      -1.267  -0.521  -0.166  0.00  0.00     0.004 A 
ATOM     10  C   UNL d   1      -1.264  -1.434   0.875  0.00  0.00     0.099 A 
ATOM     11  N   UNL d   1      -0.051  -1.368   1.518  0.00  0.00    -0.349 N 
ATOM     12  H   UNL d   1       0.235  -1.963   2.283  0.00  0.00     0.167 HD
ENDROOT
BRANCH   9  13
ATOM     13  C   UNL d   1      -2.365  -0.287  -1.146  0.00  0.00     0.307 C 
BRANCH  13  14
ATOM     14  N   UNL d   1      -3.072   0.938  -0.799  0.00  0.00     0.082 N 
ATOM     15  H   UNL d   1      -2.404   1.693  -0.645  0.00  0.00     0.313 HD
ATOM     16  H   UNL d   1      -3.564   0.809   0.084  0.00  0.00     0.313 HD
ENDBRANCH  13  14
ENDBRANCH   9  13
BRANCH   3  17
ATOM     17  N   UNL d   1       3.779   1.379   0.966  0.00  0.00    -0.272 NA
ATOM     18  H   UNL d   1       3.817   2.321   1.353  0.00  0.00     0.127 HD
ATOM     19  H   UNL d   1       4.322   0.759   1.564  0.00  0.00     0.127 HD
ENDBRANCH   3  17
TORSDOF 3
