REMARK  16 active torsions:
REMARK  status: ('A' for Active; 'I' for Inactive)
REMARK    1  A    between atoms: C_1  and  O_27 
REMARK    2  A    between atoms: C_2  and  N_26 
REMARK    3  A    between atoms: C_6  and  O_24 
REMARK    4  A    between atoms: C_7  and  N_22 
REMARK    5  A    between atoms: C_8  and  O_10 
REMARK    6  A    between atoms: C_11  and  O_10 
REMARK    7  A    between atoms: C_12  and  O_21 
REMARK    8  A    between atoms: C_13  and  O_20 
REMARK    9  A    between atoms: C_14  and  N_19 
REMARK   10  A    between atoms: C_15  and  C_16 
REMARK   11  A    between atoms: C_16  and  O_17 
REMARK   12  A    between atoms: O_27  and  C_28 
REMARK   13  A    between atoms: C_29  and  O_37 
REMARK   14  A    between atoms: C_30  and  O_36 
REMARK   15  A    between atoms: C_31  and  N_35 
REMARK   16  A    between atoms: C_33  and  N_34 
ROOT
ATOM      1  C   UNL d   1       1.288   4.048  -2.358  0.00  0.00     0.293 C 
ATOM      2  C   UNL d   1       0.518   2.797  -2.898  0.00  0.00     0.275 C 
ATOM      3  C   UNL d   1       1.043   1.542  -2.195  0.00  0.00     0.075 C 
ATOM      4  C   UNL d   1       2.527   1.428  -2.517  0.00  0.00     0.158 C 
ATOM      5  C   UNL d   1       3.282   2.722  -2.186  0.00  0.00     0.184 C 
ATOM      6  C   UNL d   1       4.660   2.588  -2.848  0.00  0.00     0.187 C 
ATOM      7  C   UNL d   1       5.374   1.289  -2.391  0.00  0.00     0.305 C 
ATOM      8  C   UNL d   1       4.424   0.032  -2.332  0.00  0.00     0.299 C 
ATOM      9  O   UNL d   1       3.137   0.368  -1.786  0.00  0.00    -0.351 OA
ATOM     10  O   UNL d   1       2.671   3.917  -2.691  0.00  0.00    -0.349 OA
ENDROOT
BRANCH   1  11
ATOM     11  O   UNL d   1       1.053   4.262  -0.955  0.00  0.00    -0.349 OA
BRANCH  11  12
ATOM     12  C   UNL d   1       1.762   5.382  -0.380  0.00  0.00     0.189 C 
ATOM     13  C   UNL d   1       1.300   6.767  -0.901  0.00  0.00     0.180 C 
ATOM     14  C   UNL d   1      -0.157   7.086  -0.497  0.00  0.00     0.182 C 
ATOM     15  C   UNL d   1      -0.405   6.982   1.025  0.00  0.00     0.251 C 
ATOM     16  C   UNL d   1       0.206   5.709   1.647  0.00  0.00     0.076 C 
ATOM     17  C   UNL d   1       1.627   5.344   1.175  0.00  0.00     0.251 C 
BRANCH  13  18
ATOM     18  O   UNL d   1       2.174   7.806  -0.436  0.00  0.00    -0.390 OA
ATOM     19  H   UNL d   1       2.715   7.419   0.296  0.00  0.00     0.210 HD
ENDBRANCH  13  18
BRANCH  14  20
ATOM     20  O   UNL d   1      -1.129   6.292  -1.181  0.00  0.00    -0.391 OA
ATOM     21  H   UNL d   1      -0.699   5.539  -1.621  0.00  0.00     0.210 HD
ENDBRANCH  14  20
BRANCH  15  22
ATOM     22  N   UNL d   1       0.037   8.190   1.752  0.00  0.00     0.085 N 
ATOM     23  H   UNL d   1      -0.580   8.964   1.478  0.00  0.00     0.313 HD
ATOM     24  H   UNL d   1       0.947   8.474   1.388  0.00  0.00     0.313 HD
ENDBRANCH  15  22
BRANCH  17  25
ATOM     25  N   UNL d   1       2.629   6.223   1.824  0.00  0.00     0.085 N 
ATOM     26  H   UNL d   1       3.056   5.701   2.595  0.00  0.00     0.313 HD
ATOM     27  H   UNL d   1       2.138   6.979   2.315  0.00  0.00     0.313 HD
ENDBRANCH  17  25
ENDBRANCH  11  12
ENDBRANCH   1  11
BRANCH   2  28
ATOM     28  N   UNL d   1      -0.947   2.884  -2.829  0.00  0.00     0.087 N 
ATOM     29  H   UNL d   1      -1.268   2.525  -1.930  0.00  0.00     0.313 HD
ATOM     30  H   UNL d   1      -1.340   2.235  -3.518  0.00  0.00     0.313 HD
ENDBRANCH   2  28
BRANCH   6  31
ATOM     31  O   UNL d   1       4.428   2.634  -4.279  0.00  0.00    -0.391 OA
ATOM     32  H   UNL d   1       4.010   3.505  -4.442  0.00  0.00     0.210 HD
ENDBRANCH   6  31
BRANCH   7  33
ATOM     33  N   UNL d   1       6.713   1.031  -2.990  0.00  0.00     0.091 N 
ATOM     34  C   UNL d   1       6.754   1.058  -4.448  0.00  0.00     0.307 C 
ATOM     35  H   UNL d   1       7.017   0.109  -2.670  0.00  0.00     0.316 HD
ENDBRANCH   7  33
BRANCH   8  36
ATOM     36  O   UNL d   1       5.066  -0.947  -1.489  0.00  0.00    -0.327 OA
BRANCH  36  37
ATOM     37  C   UNL d   1       4.241  -2.090  -1.234  0.00  0.00     0.294 C 
ATOM     38  C   UNL d   1       4.932  -2.952  -0.138  0.00  0.00     0.204 C 
ATOM     39  C   UNL d   1       4.162  -4.264   0.081  0.00  0.00     0.187 C 
ATOM     40  C   UNL d   1       3.887  -4.993  -1.262  0.00  0.00     0.279 C 
ATOM     41  C   UNL d   1       3.246  -4.012  -2.278  0.00  0.00     0.183 C 
ATOM     42  O   UNL d   1       4.088  -2.848  -2.434  0.00  0.00    -0.349 OA
BRANCH  38  43
ATOM     43  O   UNL d   1       6.290  -3.276  -0.481  0.00  0.00    -0.388 OA
ATOM     44  H   UNL d   1       6.387  -3.059  -1.426  0.00  0.00     0.210 HD
ENDBRANCH  38  43
BRANCH  39  45
ATOM     45  O   UNL d   1       2.917  -4.032   0.746  0.00  0.00    -0.391 OA
ATOM     46  H   UNL d   1       3.069  -3.432   1.497  0.00  0.00     0.210 HD
ENDBRANCH  39  45
BRANCH  40  47
ATOM     47  N   UNL d   1       5.113  -5.577  -1.857  0.00  0.00     0.088 N 
ATOM     48  H   UNL d   1       5.832  -5.682  -1.137  0.00  0.00     0.313 HD
ATOM     49  H   UNL d   1       5.512  -4.916  -2.527  0.00  0.00     0.313 HD
ENDBRANCH  40  47
BRANCH  41  50
ATOM     50  C   UNL d   1       1.774  -3.665  -1.959  0.00  0.00     0.198 C 
BRANCH  50  51
ATOM     51  O   UNL d   1       1.228  -2.778  -2.936  0.00  0.00    -0.398 OA
ATOM     52  H   UNL d   1       1.406  -3.156  -3.813  0.00  0.00     0.209 HD
ENDBRANCH  50  51
ENDBRANCH  41  50
ENDBRANCH  36  37
ENDBRANCH   8  36
TORSDOF 16
