2OE5_AM2_B_101
 OpenBabel03221817263D

 78 81  0  0  1  0  0  0  0  0999 V2000
    1.2879    4.0482   -2.3585 C   0  0  2  0  0  0  0  0  0  0  0  0
    0.9154    4.9147   -2.9115 H   0  0  0  0  0  0  0  0  0  0  0  0
    0.5177    2.7971   -2.8980 C   0  0  1  0  0  0  0  0  0  0  0  0
    0.7713    2.7154   -3.9650 H   0  0  0  0  0  0  0  0  0  0  0  0
    1.0433    1.5417   -2.1954 C   0  0  0  0  0  0  0  0  0  0  0  0
    2.5270    1.4281   -2.5168 C   0  0  1  0  0  0  0  0  0  0  0  0
    2.5829    1.1952   -3.5899 H   0  0  0  0  0  0  0  0  0  0  0  0
    3.2817    2.7217   -2.1860 C   0  0  1  0  0  0  0  0  0  0  0  0
    3.4185    2.8240   -1.1025 H   0  0  0  0  0  0  0  0  0  0  0  0
    4.6605    2.5878   -2.8479 C   0  0  1  0  0  0  0  0  0  0  0  0
    5.2795    3.4595   -2.6179 H   0  0  0  0  0  0  0  0  0  0  0  0
    5.3741    1.2890   -2.3911 C   0  0  1  0  0  0  0  0  0  0  0  0
    5.6132    1.4827   -1.3291 H   0  0  0  0  0  0  0  0  0  0  0  0
    4.4238    0.0318   -2.3317 C   0  0  2  0  0  0  0  0  0  0  0  0
    4.2929   -0.3966   -3.3333 H   0  0  0  0  0  0  0  0  0  0  0  0
    3.1368    0.3676   -1.7865 O   0  0  0  0  0  0  0  0  0  0  0  0
    5.0656   -0.9466   -1.4886 O   0  0  0  0  0  0  0  0  0  0  0  0
    4.2412   -2.0896   -1.2339 C   0  0  2  0  0  0  0  0  0  0  0  0
    3.2702   -1.7596   -0.8510 H   0  0  0  0  0  0  0  0  0  0  0  0
    4.9317   -2.9519   -0.1384 C   0  0  1  0  0  0  0  0  0  0  0  0
    4.9761   -2.3730    0.7926 H   0  0  0  0  0  0  0  0  0  0  0  0
    4.1624   -4.2639    0.0808 C   0  0  2  0  0  0  0  0  0  0  0  0
    4.7439   -4.9280    0.7324 H   0  0  0  0  0  0  0  0  0  0  0  0
    3.8872   -4.9927   -1.2623 C   0  0  1  0  0  0  0  0  0  0  0  0
    3.1945   -5.8237   -1.0836 H   0  0  0  0  0  0  0  0  0  0  0  0
    3.2463   -4.0123   -2.2784 C   0  0  1  0  0  0  0  0  0  0  0  0
    3.2425   -4.4848   -3.2700 H   0  0  0  0  0  0  0  0  0  0  0  0
    1.7744   -3.6651   -1.9590 C   0  0  0  0  0  0  0  0  0  0  0  0
    1.2275   -2.7780   -2.9363 O   0  0  0  0  0  0  0  0  0  0  0  0
    4.0880   -2.8481   -2.4344 O   0  0  0  0  0  0  0  0  0  0  0  0
    5.1133   -5.5774   -1.8571 N   0  0  0  0  0  0  0  0  0  0  0  0
    2.9165   -4.0323    0.7462 O   0  0  0  0  0  0  0  0  0  0  0  0
    6.2904   -3.2758   -0.4808 O   0  0  0  0  0  0  0  0  0  0  0  0
    6.7134    1.0308   -2.9901 N   0  0  0  0  0  0  0  0  0  0  0  0
    6.7536    1.0575   -4.4478 C   0  0  0  0  0  0  0  0  0  0  0  0
    4.4281    2.6336   -4.2787 O   0  0  0  0  0  0  0  0  0  0  0  0
    2.6714    3.9169   -2.6909 O   0  0  0  0  0  0  0  0  0  0  0  0
   -0.9465    2.8839   -2.8289 N   0  0  0  0  0  0  0  0  0  0  0  0
    1.0527    4.2622   -0.9548 O   0  0  0  0  0  0  0  0  0  0  0  0
    1.7615    5.3824   -0.3804 C   0  0  1  0  0  0  0  0  0  0  0  0
    2.8288    5.2539   -0.6044 H   0  0  0  0  0  0  0  0  0  0  0  0
    1.3001    6.7670   -0.9013 C   0  0  1  0  0  0  0  0  0  0  0  0
    1.3665    6.7847   -1.9910 H   0  0  0  0  0  0  0  0  0  0  0  0
   -0.1568    7.0864   -0.4974 C   0  0  2  0  0  0  0  0  0  0  0  0
   -0.3692    8.1186   -0.8032 H   0  0  0  0  0  0  0  0  0  0  0  0
   -0.4050    6.9820    1.0248 C   0  0  1  0  0  0  0  0  0  0  0  0
   -1.4925    6.9118    1.1980 H   0  0  0  0  0  0  0  0  0  0  0  0
    0.2059    5.7093    1.6470 C   0  0  0  0  0  0  0  0  0  0  0  0
    1.6266    5.3439    1.1755 C   0  0  2  0  0  0  0  0  0  0  0  0
    1.8301    4.3184    1.5099 H   0  0  0  0  0  0  0  0  0  0  0  0
    2.6288    6.2231    1.8243 N   0  0  0  0  0  0  0  0  0  0  0  0
    0.0366    8.1897    1.7525 N   0  0  0  0  0  0  0  0  0  0  0  0
   -1.1285    6.2916   -1.1813 O   0  0  0  0  0  0  0  0  0  0  0  0
    2.1735    7.8057   -0.4364 O   0  0  0  0  0  0  0  0  0  0  0  0
    0.5249    0.6393   -2.5455 H   0  0  0  0  0  0  0  0  0  0  0  0
    0.8806    1.5849   -1.1119 H   0  0  0  0  0  0  0  0  0  0  0  0
    1.1640   -4.5742   -1.9455 H   0  0  0  0  0  0  0  0  0  0  0  0
    1.6463   -3.1632   -1.0009 H   0  0  0  0  0  0  0  0  0  0  0  0
    1.4061   -3.1562   -3.8128 H   0  0  0  0  0  0  0  0  0  0  0  0
    5.8324   -5.6823   -1.1366 H   0  0  0  0  0  0  0  0  0  0  0  0
    5.5119   -4.9163   -2.5272 H   0  0  0  0  0  0  0  0  0  0  0  0
    3.0692   -3.4318    1.4971 H   0  0  0  0  0  0  0  0  0  0  0  0
    6.3867   -3.0594   -1.4257 H   0  0  0  0  0  0  0  0  0  0  0  0
    7.0167    0.1090   -2.6695 H   0  0  0  0  0  0  0  0  0  0  0  0
    6.6320    2.0698   -4.8401 H   0  0  0  0  0  0  0  0  0  0  0  0
    6.0167    0.3874   -4.9003 H   0  0  0  0  0  0  0  0  0  0  0  0
    7.7445    0.7345   -4.7830 H   0  0  0  0  0  0  0  0  0  0  0  0
    4.0103    3.5050   -4.4419 H   0  0  0  0  0  0  0  0  0  0  0  0
   -1.2680    2.5249   -1.9299 H   0  0  0  0  0  0  0  0  0  0  0  0
   -1.3400    2.2352   -3.5185 H   0  0  0  0  0  0  0  0  0  0  0  0
   -0.4540    4.8626    1.4214 H   0  0  0  0  0  0  0  0  0  0  0  0
    0.1944    5.7918    2.7450 H   0  0  0  0  0  0  0  0  0  0  0  0
    3.0562    5.7006    2.5947 H   0  0  0  0  0  0  0  0  0  0  0  0
    2.1382    6.9792    2.3153 H   0  0  0  0  0  0  0  0  0  0  0  0
   -0.5798    8.9640    1.4777 H   0  0  0  0  0  0  0  0  0  0  0  0
    0.9465    8.4742    1.3880 H   0  0  0  0  0  0  0  0  0  0  0  0
   -0.6990    5.5389   -1.6214 H   0  0  0  0  0  0  0  0  0  0  0  0
    2.7148    7.4190    0.2961 H   0  0  0  0  0  0  0  0  0  0  0  0
  1  2  1  0  0  0  0
  1  3  1  6  0  0  0
  1 37  1  0  0  0  0
  1 39  1  0  0  0  0
  3  5  1  0  0  0  0
  3 38  1  0  0  0  0
  3  4  1  6  0  0  0
  5  6  1  0  0  0  0
  5 55  1  0  0  0  0
  5 56  1  0  0  0  0
  6  7  1  0  0  0  0
  6  8  1  1  0  0  0
  6 16  1  0  0  0  0
  8  9  1  0  0  0  0
  8 10  1  6  0  0  0
  8 37  1  0  0  0  0
 10 11  1  0  0  0  0
 10 12  1  1  0  0  0
 10 36  1  0  0  0  0
 12 13  1  0  0  0  0
 12 14  1  6  0  0  0
 12 34  1  0  0  0  0
 14 16  1  0  0  0  0
 14 17  1  0  0  0  0
 14 15  1  6  0  0  0
 18 20  1  1  0  0  0
 18 30  1  0  0  0  0
 18 19  1  0  0  0  0
 18 17  1  0  0  0  0
 20 22  1  1  0  0  0
 20 33  1  0  0  0  0
 20 21  1  0  0  0  0
 22 24  1  6  0  0  0
 22 32  1  0  0  0  0
 22 23  1  0  0  0  0
 24 25  1  0  0  0  0
 24 26  1  6  0  0  0
 24 31  1  0  0  0  0
 26 30  1  0  0  0  0
 26 28  1  0  0  0  0
 26 27  1  6  0  0  0
 28 29  1  0  0  0  0
 28 57  1  0  0  0  0
 28 58  1  0  0  0  0
 29 59  1  0  0  0  0
 31 60  1  0  0  0  0
 31 61  1  0  0  0  0
 32 62  1  0  0  0  0
 33 63  1  0  0  0  0
 34 35  1  0  0  0  0
 34 64  1  0  0  0  0
 35 65  1  0  0  0  0
 35 66  1  0  0  0  0
 35 67  1  0  0  0  0
 36 68  1  0  0  0  0
 38 69  1  0  0  0  0
 38 70  1  0  0  0  0
 39 40  1  0  0  0  0
 40 41  1  0  0  0  0
 40 42  1  6  0  0  0
 42 44  1  1  0  0  0
 42 54  1  0  0  0  0
 42 43  1  0  0  0  0
 44 46  1  1  0  0  0
 44 53  1  0  0  0  0
 44 45  1  0  0  0  0
 46 47  1  1  0  0  0
 46 48  1  0  0  0  0
 46 52  1  0  0  0  0
 48 49  1  0  0  0  0
 48 71  1  0  0  0  0
 48 72  1  0  0  0  0
 49 50  1  0  0  0  0
 49 40  1  6  0  0  0
 49 51  1  0  0  0  0
 51 73  1  0  0  0  0
 51 74  1  0  0  0  0
 52 75  1  0  0  0  0
 52 76  1  0  0  0  0
 53 77  1  0  0  0  0
 54 78  1  0  0  0  0
M  END
$$$$
