@<TRIPOS>MOLECULE
2OE5_AM2_B_101
 78 81 0 0 0
SMALL
GASTEIGER

@<TRIPOS>ATOM
      1 C           1.2879    4.0482   -2.3585 C.3     1  UNL1        0.1752
      2 H           0.9154    4.9147   -2.9115 H       1  UNL1        0.0926
      3 C           0.5177    2.7971   -2.8980 C.3     1  UNL1        0.0590
      4 H           0.7713    2.7154   -3.9650 H       1  UNL1        0.0509
      5 C           1.0433    1.5417   -2.1954 C.3     1  UNL1       -0.0040
      6 C           2.5270    1.4281   -2.5168 C.3     1  UNL1        0.0920
      7 H           2.5829    1.1952   -3.5899 H       1  UNL1        0.0624
      8 C           3.2817    2.7217   -2.1860 C.3     1  UNL1        0.1153
      9 H           3.4185    2.8240   -1.1025 H       1  UNL1        0.0649
     10 C           4.6605    2.5878   -2.8479 C.3     1  UNL1        0.1038
     11 H           5.2795    3.4595   -2.6179 H       1  UNL1        0.0637
     12 C           5.3741    1.2890   -2.3911 C.3     1  UNL1        0.0877
     13 H           5.6132    1.4827   -1.3291 H       1  UNL1        0.0537
     14 C           4.4238    0.0318   -2.3317 C.3     1  UNL1        0.1803
     15 H           4.2929   -0.3966   -3.3333 H       1  UNL1        0.0928
     16 O           3.1368    0.3676   -1.7865 O.3     1  UNL1       -0.3436
     17 O           5.0656   -0.9466   -1.4886 O.3     1  UNL1       -0.3184
     18 C           4.2412   -2.0896   -1.2339 C.3     1  UNL1        0.1908
     19 H           3.2702   -1.7596   -0.8510 H       1  UNL1        0.0938
     20 C           4.9317   -2.9519   -0.1384 C.3     1  UNL1        0.1332
     21 H           4.9761   -2.3730    0.7926 H       1  UNL1        0.0671
     22 C           4.1624   -4.2639    0.0808 C.3     1  UNL1        0.1033
     23 H           4.7439   -4.9280    0.7324 H       1  UNL1        0.0637
     24 C           3.8872   -4.9927   -1.2623 C.3     1  UNL1        0.0626
     25 H           3.1945   -5.8237   -1.0836 H       1  UNL1        0.0511
     26 C           3.2463   -4.0123   -2.2784 C.3     1  UNL1        0.1023
     27 H           3.2425   -4.4848   -3.2700 H       1  UNL1        0.0636
     28 C           1.7744   -3.6651   -1.9590 C.3     1  UNL1        0.0720
     29 O           1.2275   -2.7780   -2.9363 O.3     1  UNL1       -0.3924
     30 O           4.0880   -2.8481   -2.4344 O.3     1  UNL1       -0.3415
     31 N           5.1133   -5.5774   -1.8571 N.3     1  UNL1       -0.3230
     32 O           2.9165   -4.0323    0.7462 O.3     1  UNL1       -0.3874
     33 O           6.2904   -3.2758   -0.4808 O.3     1  UNL1       -0.3841
     34 N           6.7134    1.0308   -2.9901 N.3     1  UNL1       -0.3099
     35 C           6.7536    1.0575   -4.4478 C.3     1  UNL1       -0.0153
     36 O           4.4281    2.6336   -4.2787 O.3     1  UNL1       -0.3874
     37 O           2.6714    3.9169   -2.6909 O.3     1  UNL1       -0.3413
     38 N          -0.9465    2.8839   -2.8289 N.3     1  UNL1       -0.3231
     39 O           1.0527    4.2622   -0.9548 O.3     1  UNL1       -0.3423
     40 C           1.7615    5.3824   -0.3804 C.3     1  UNL1        0.1051
     41 H           2.8288    5.2539   -0.6044 H       1  UNL1        0.0639
     42 C           1.3001    6.7670   -0.9013 C.3     1  UNL1        0.1101
     43 H           1.3665    6.7847   -1.9910 H       1  UNL1        0.0646
     44 C          -0.1568    7.0864   -0.4974 C.3     1  UNL1        0.0986
     45 H          -0.3692    8.1186   -0.8032 H       1  UNL1        0.0635
     46 C          -0.4050    6.9820    1.0248 C.3     1  UNL1        0.0351
     47 H          -1.4925    6.9118    1.1980 H       1  UNL1        0.0485
     48 C           0.2059    5.7093    1.6470 C.3     1  UNL1       -0.0175
     49 C           1.6266    5.3439    1.1755 C.3     1  UNL1        0.0355
     50 H           1.8301    4.3184    1.5099 H       1  UNL1        0.0485
     51 N           2.6288    6.2231    1.8243 N.3     1  UNL1       -0.3250
     52 N           0.0366    8.1897    1.7525 N.3     1  UNL1       -0.3250
     53 O          -1.1285    6.2916   -1.1813 O.3     1  UNL1       -0.3876
     54 O           2.1735    7.8057   -0.4364 O.3     1  UNL1       -0.3866
     55 H           0.5249    0.6393   -2.5455 H       1  UNL1        0.0308
     56 H           0.8806    1.5849   -1.1119 H       1  UNL1        0.0308
     57 H           1.1640   -4.5742   -1.9455 H       1  UNL1        0.0583
     58 H           1.6463   -3.1632   -1.0009 H       1  UNL1        0.0583
     59 H           1.4061   -3.1562   -3.8128 H       1  UNL1        0.2095
     60 H           5.8324   -5.6823   -1.1366 H       1  UNL1        0.1186
     61 H           5.5119   -4.9163   -2.5272 H       1  UNL1        0.1186
     62 H           3.0692   -3.4318    1.4971 H       1  UNL1        0.2100
     63 H           6.3867   -3.0594   -1.4257 H       1  UNL1        0.2101
     64 H           7.0167    0.1090   -2.6695 H       1  UNL1        0.1221
     65 H           6.6320    2.0698   -4.8401 H       1  UNL1        0.0388
     66 H           6.0167    0.3874   -4.9003 H       1  UNL1        0.0388
     67 H           7.7445    0.7345   -4.7830 H       1  UNL1        0.0388
     68 H           4.0103    3.5050   -4.4419 H       1  UNL1        0.2100
     69 H          -1.2680    2.5249   -1.9299 H       1  UNL1        0.1186
     70 H          -1.3400    2.2352   -3.5185 H       1  UNL1        0.1186
     71 H          -0.4540    4.8626    1.4214 H       1  UNL1        0.0297
     72 H           0.1944    5.7918    2.7450 H       1  UNL1        0.0297
     73 H           3.0562    5.7006    2.5947 H       1  UNL1        0.1185
     74 H           2.1382    6.9792    2.3153 H       1  UNL1        0.1185
     75 H          -0.5798    8.9640    1.4777 H       1  UNL1        0.1185
     76 H           0.9465    8.4742    1.3880 H       1  UNL1        0.1185
     77 H          -0.6990    5.5389   -1.6214 H       1  UNL1        0.2100
     78 H           2.7148    7.4190    0.2961 H       1  UNL1        0.2100
@<TRIPOS>BOND
     1     1     2    1
     2     1     3    1
     3     1    37    1
     4     1    39    1
     5     3     5    1
     6     3    38    1
     7     3     4    1
     8     5     6    1
     9     5    55    1
    10     5    56    1
    11     6     7    1
    12     6     8    1
    13     6    16    1
    14     8     9    1
    15     8    10    1
    16     8    37    1
    17    10    11    1
    18    10    12    1
    19    10    36    1
    20    12    13    1
    21    12    14    1
    22    12    34    1
    23    14    16    1
    24    14    17    1
    25    14    15    1
    26    18    20    1
    27    18    30    1
    28    18    19    1
    29    18    17    1
    30    20    22    1
    31    20    33    1
    32    20    21    1
    33    22    24    1
    34    22    32    1
    35    22    23    1
    36    24    25    1
    37    24    26    1
    38    24    31    1
    39    26    30    1
    40    26    28    1
    41    26    27    1
    42    28    29    1
    43    28    57    1
    44    28    58    1
    45    29    59    1
    46    31    60    1
    47    31    61    1
    48    32    62    1
    49    33    63    1
    50    34    35    1
    51    34    64    1
    52    35    65    1
    53    35    66    1
    54    35    67    1
    55    36    68    1
    56    38    69    1
    57    38    70    1
    58    39    40    1
    59    40    41    1
    60    40    42    1
    61    42    44    1
    62    42    54    1
    63    42    43    1
    64    44    46    1
    65    44    53    1
    66    44    45    1
    67    46    47    1
    68    46    48    1
    69    46    52    1
    70    48    49    1
    71    48    71    1
    72    48    72    1
    73    49    50    1
    74    49    40    1
    75    49    51    1
    76    51    73    1
    77    51    74    1
    78    52    75    1
    79    52    76    1
    80    53    77    1
    81    54    78    1
