@<TRIPOS>MOLECULE
ligands/ligand.pdb
 88 91 0 0 0
SMALL
GASTEIGER

@<TRIPOS>ATOM
      1 O          -3.8662    5.9768    0.4728 O.3     1  UNL1       -0.3924
      2 C          -2.8358    6.5190    1.2708 C.3     1  UNL1        0.0730
      3 C          -2.3483    5.4717    2.2402 C.3     1  UNL1        0.1135
      4 H          -3.1590    5.2239    2.9427 H       1  UNL1        0.0647
      5 O          -2.0248    4.0916    1.5377 O.3     1  UNL1       -0.3405
      6 C          -0.6433    3.4918    2.0670 C.3     1  UNL1        0.1884
      7 H          -0.9367    2.6980    2.7618 H       1  UNL1        0.0938
      8 C          -0.1941    4.7792    2.6820 C.3     1  UNL1        0.1345
      9 H          -1.1757    4.4206    3.1890 H       1  UNL1        0.0671
     10 C          -0.9618    5.9761    3.1516 C.3     1  UNL1        0.1205
     11 H          -0.6837    6.9712    2.7722 H       1  UNL1        0.0651
     12 O          -1.4053    6.1184    4.4833 O.3     1  UNL1       -0.3410
     13 C          -0.5461    6.1978    5.6053 C.3     1  UNL1        0.1776
     14 H          -0.7243    7.1915    6.0279 H       1  UNL1        0.0927
     15 O          -0.9638    5.2809    6.6450 O.3     1  UNL1       -0.3425
     16 C          -1.0395    3.9122    6.1856 C.3     1  UNL1        0.1022
     17 H          -1.1202    3.3181    7.1048 H       1  UNL1        0.0636
     18 C           0.3555    3.4791    5.6232 C.3     1  UNL1        0.1100
     19 H           0.8776    3.0784    6.5026 H       1  UNL1        0.0646
     20 C           1.3307    4.5644    5.0664 C.3     1  UNL1        0.1033
     21 H           1.4740    4.4757    3.9999 H       1  UNL1        0.0637
     22 C           0.9691    5.9972    5.4898 C.3     1  UNL1        0.0853
     23 H           1.3719    6.1290    6.5045 H       1  UNL1        0.0535
     24 N           1.6089    7.0375    4.6845 N.3     1  UNL1       -0.3211
     25 O           2.6510    4.2852    5.5739 O.3     1  UNL1       -0.3874
     26 O           0.2752    2.3580    4.7528 O.3     1  UNL1       -0.3866
     27 C          -2.4618    3.7294    5.5646 C.3     1  UNL1        0.0222
     28 N          -2.7661    2.5964    4.7065 N.3     1  UNL1       -0.3276
     29 O          -0.0103    5.4750    1.3885 O.3     1  UNL1       -0.3841
     30 O           0.1272    2.7124    1.1257 O.3     1  UNL1       -0.3402
     31 C           0.3984    3.3624   -0.1048 C.3     1  UNL1        0.1166
     32 H           1.2199    4.0735    0.1409 H       1  UNL1        0.0650
     33 C           0.9116    2.6498   -1.4406 C.3     1  UNL1        0.1055
     34 H           0.2034    2.0949   -2.0398 H       1  UNL1        0.0639
     35 O           1.8545    1.6965   -1.1087 O.3     1  UNL1       -0.3422
     36 C           1.3560    0.3760   -0.9153 C.3     1  UNL1        0.1776
     37 H           0.2933    0.2472   -1.1389 H       1  UNL1        0.0927
     38 O           2.1058   -0.4892   -1.8424 O.3     1  UNL1       -0.3425
     39 C           3.5353   -0.2308   -1.7477 C.3     1  UNL1        0.1022
     40 H           3.6559    0.8473   -1.6685 H       1  UNL1        0.0636
     41 C           4.1964   -0.7719   -0.3765 C.3     1  UNL1        0.1100
     42 H           4.3440   -1.8534   -0.3926 H       1  UNL1        0.0646
     43 C           3.3188   -0.3650    0.9852 C.3     1  UNL1        0.1033
     44 H           3.6792    0.5964    1.4150 H       1  UNL1        0.0637
     45 C           1.8469   -0.1669    0.4823 C.3     1  UNL1        0.0853
     46 H           2.6112    0.3871   -0.0304 H       1  UNL1        0.0535
     47 N           1.3776   -1.5588    0.4022 N.3     1  UNL1       -0.3211
     48 O           3.4918   -1.2848    2.0465 O.3     1  UNL1       -0.3874
     49 O           5.4752   -0.1558   -0.2160 O.3     1  UNL1       -0.3866
     50 C           4.0667   -0.4843   -3.1484 C.3     1  UNL1        0.0222
     51 N           5.1998    0.3976   -3.3878 N.3     1  UNL1       -0.3276
     52 C           1.3173    3.8121   -2.3751 C.3     1  UNL1        0.0355
     53 H           1.7514    4.6494   -1.8010 H       1  UNL1        0.0485
     54 C          -0.0714    4.3432   -3.0226 C.3     1  UNL1       -0.0175
     55 C          -1.4428    4.6344   -1.9322 C.3     1  UNL1        0.0351
     56 H          -1.8592    4.4508   -2.9245 H       1  UNL1        0.0485
     57 C          -0.9213    3.9217   -0.6828 C.3     1  UNL1        0.0990
     58 H          -0.0985    4.5427   -1.0617 H       1  UNL1        0.0636
     59 O          -1.4648    2.5694   -0.8125 O.3     1  UNL1       -0.3876
     60 N          -2.8921    4.2393   -1.6743 N.3     1  UNL1       -0.3250
     61 N           2.3135    3.5789   -3.4134 N.3     1  UNL1       -0.3250
     62 H          -3.4355    5.5999   -0.3139 H       1  UNL1        0.2095
     63 H          -2.0410    6.9054    0.6246 H       1  UNL1        0.0584
     64 H          -3.2657    7.3622    1.8170 H       1  UNL1        0.0584
     65 H           1.0835    7.2174    3.8298 H       1  UNL1        0.1187
     66 H           1.5840    7.9177    5.2059 H       1  UNL1        0.1187
     67 H           3.2563    4.3289    4.8135 H       1  UNL1        0.2100
     68 H           1.1358    2.2615    4.3046 H       1  UNL1        0.2100
     69 H          -2.8290    4.6243    5.0735 H       1  UNL1        0.0448
     70 H          -3.1433    3.6500    6.4246 H       1  UNL1        0.0448
     71 H          -3.7778    2.4366    4.7599 H       1  UNL1        0.1183
     72 H          -2.6496    2.8854    3.7354 H       1  UNL1        0.1183
     73 H           0.9174    5.7776    1.4020 H       1  UNL1        0.2101
     74 H           1.0863   -1.8682    1.3347 H       1  UNL1        0.1187
     75 H           2.1256   -2.1828    0.1097 H       1  UNL1        0.1187
     76 H           2.9580   -2.0767    1.8700 H       1  UNL1        0.2100
     77 H           5.7188    0.2744   -1.0548 H       1  UNL1        0.2100
     78 H           3.2821   -0.1683   -3.8539 H       1  UNL1        0.0448
     79 H           4.2887   -1.5300   -3.3586 H       1  UNL1        0.0448
     80 H           5.9877   -0.1304   -3.7450 H       1  UNL1        0.1183
     81 H           4.9596    1.0965   -4.0914 H       1  UNL1        0.1183
     82 H           0.1153    5.2972   -3.5481 H       1  UNL1        0.0297
     83 H          -0.3664    3.5628   -3.7530 H       1  UNL1        0.0297
     84 H          -1.6333    2.3528   -1.7490 H       1  UNL1        0.2100
     85 H          -2.9964    3.7879   -0.7524 H       1  UNL1        0.1185
     86 H          -3.1855    3.4734   -2.2907 H       1  UNL1        0.1185
     87 H           2.7440    4.4681   -3.6695 H       1  UNL1        0.1185
     88 H           1.8823    3.2402   -4.2634 H       1  UNL1        0.1185
@<TRIPOS>BOND
     1     2     1    1
     2     3     2    1
     3     3     4    1
     4     5     3    1
     5     6     5    1
     6     6     7    1
     7     8     6    1
     8     8     9    1
     9    10     8    1
    10    10    11    1
    11    10     3    1
    12    12    10    1
    13    13    12    1
    14    13    14    1
    15    15    13    1
    16    16    15    1
    17    16    17    1
    18    18    16    1
    19    18    19    1
    20    20    18    1
    21    20    21    1
    22    22    20    1
    23    22    23    1
    24    22    13    1
    25    24    22    1
    26    25    20    1
    27    26    18    1
    28    27    16    1
    29    28    27    1
    30    29     8    1
    31    30     6    1
    32    31    30    1
    33    31    32    1
    34    33    31    1
    35    33    34    1
    36    35    33    1
    37    36    35    1
    38    36    37    1
    39    38    36    1
    40    39    38    1
    41    39    40    1
    42    41    39    1
    43    41    42    1
    44    43    41    1
    45    43    44    1
    46    45    43    1
    47    45    46    1
    48    45    36    1
    49    47    45    1
    50    48    43    1
    51    49    41    1
    52    50    39    1
    53    51    50    1
    54    52    33    1
    55    52    53    1
    56    54    52    1
    57    55    54    1
    58    55    56    1
    59    57    55    1
    60    57    58    1
    61    57    31    1
    62    59    57    1
    63    60    55    1
    64    61    52    1
    65     1    62    1
    66     2    63    1
    67     2    64    1
    68    24    65    1
    69    24    66    1
    70    25    67    1
    71    26    68    1
    72    27    69    1
    73    27    70    1
    74    28    71    1
    75    28    72    1
    76    29    73    1
    77    47    74    1
    78    47    75    1
    79    48    76    1
    80    49    77    1
    81    50    78    1
    82    50    79    1
    83    51    80    1
    84    51    81    1
    85    54    82    1
    86    54    83    1
    87    59    84    1
    88    60    85    1
    89    60    86    1
    90    61    87    1
    91    61    88    1
