REMARK  22 active torsions:
REMARK  status: ('A' for Active; 'I' for Inactive)
REMARK    1  A    between atoms: C_2  and  O_1 
REMARK    2  A    between atoms: C_3  and  C_2 
REMARK    3  A    between atoms: O_21  and  C_5 
REMARK    4  A    between atoms: O_20  and  C_6 
REMARK    5  A    between atoms: O_8  and  C_7 
REMARK    6  A    between atoms: C_9  and  O_8 
REMARK    7  A    between atoms: C_18  and  C_11 
REMARK    8  A    between atoms: O_17  and  C_12 
REMARK    9  A    between atoms: O_16  and  C_13 
REMARK   10  A    between atoms: N_15  and  C_14 
REMARK   11  A    between atoms: N_19  and  C_18 
REMARK   12  A    between atoms: C_22  and  O_21 
REMARK   13  A    between atoms: O_24  and  C_23 
REMARK   14  A    between atoms: C_25  and  O_24 
REMARK   15  A    between atoms: C_34  and  C_27 
REMARK   16  A    between atoms: O_33  and  C_28 
REMARK   17  A    between atoms: O_32  and  C_29 
REMARK   18  A    between atoms: N_31  and  C_30 
REMARK   19  A    between atoms: N_35  and  C_34 
REMARK   20  A    between atoms: N_42  and  C_36 
REMARK   21  A    between atoms: N_41  and  C_38 
REMARK   22  A    between atoms: O_40  and  C_39 
ROOT
ATOM      1  C   UNL d   1       0.398   3.362  -0.105  0.00  0.00     0.186 C 
ATOM      2  C   UNL d   1       0.912   2.650  -1.441  0.00  0.00     0.189 C 
ATOM      3  C   UNL d   1       1.317   3.812  -2.375  0.00  0.00     0.251 C 
ATOM      4  C   UNL d   1      -0.071   4.343  -3.023  0.00  0.00     0.076 C 
ATOM      5  C   UNL d   1      -1.443   4.634  -1.932  0.00  0.00     0.251 C 
ATOM      6  C   UNL d   1      -0.921   3.922  -0.683  0.00  0.00     0.182 C 
ENDROOT
BRANCH   1   7
ATOM      7  O   UNL d   1       0.127   2.712   1.126  0.00  0.00    -0.348 OA
BRANCH   7   8
ATOM      8  C   UNL d   1      -0.643   3.492   2.067  0.00  0.00     0.292 C 
ATOM      9  O   UNL d   1      -2.025   4.092   1.538  0.00  0.00    -0.348 OA
ATOM     10  C   UNL d   1      -2.348   5.472   2.240  0.00  0.00     0.180 C 
ATOM     11  C   UNL d   1      -0.962   5.976   3.152  0.00  0.00     0.189 C 
ATOM     12  C   UNL d   1      -0.194   4.779   2.682  0.00  0.00     0.205 C 
BRANCH  10  13
ATOM     13  C   UNL d   1      -2.836   6.519   1.271  0.00  0.00     0.198 C 
BRANCH  13  14
ATOM     14  O   UNL d   1      -3.866   5.977   0.473  0.00  0.00    -0.398 OA
ATOM     15  H   UNL d   1      -3.436   5.600  -0.314  0.00  0.00     0.209 HD
ENDBRANCH  13  14
ENDBRANCH  10  13
BRANCH  11  16
ATOM     16  O   UNL d   1      -1.405   6.118   4.483  0.00  0.00    -0.348 OA
BRANCH  16  17
ATOM     17  C   UNL d   1      -0.546   6.198   5.605  0.00  0.00     0.296 C 
ATOM     18  O   UNL d   1      -0.964   5.281   6.645  0.00  0.00    -0.349 OA
ATOM     19  C   UNL d   1      -1.040   3.912   6.186  0.00  0.00     0.183 C 
ATOM     20  C   UNL d   1       0.355   3.479   5.623  0.00  0.00     0.179 C 
ATOM     21  C   UNL d   1       1.331   4.564   5.066  0.00  0.00     0.187 C 
ATOM     22  C   UNL d   1       0.969   5.997   5.490  0.00  0.00     0.303 C 
BRANCH  19  23
ATOM     23  C   UNL d   1      -2.462   3.729   5.565  0.00  0.00     0.301 C 
BRANCH  23  24
ATOM     24  N   UNL d   1      -2.766   2.596   4.707  0.00  0.00     0.080 N 
ATOM     25  H   UNL d   1      -3.778   2.437   4.760  0.00  0.00     0.312 HD
ATOM     26  H   UNL d   1      -2.650   2.885   3.735  0.00  0.00     0.312 HD
ENDBRANCH  23  24
ENDBRANCH  19  23
BRANCH  20  27
ATOM     27  O   UNL d   1       0.275   2.358   4.753  0.00  0.00    -0.390 OA
ATOM     28  H   UNL d   1       1.136   2.261   4.305  0.00  0.00     0.210 HD
ENDBRANCH  20  27
BRANCH  21  29
ATOM     29  O   UNL d   1       2.651   4.285   5.574  0.00  0.00    -0.391 OA
ATOM     30  H   UNL d   1       3.256   4.329   4.814  0.00  0.00     0.210 HD
ENDBRANCH  21  29
BRANCH  22  31
ATOM     31  N   UNL d   1       1.609   7.037   4.684  0.00  0.00     0.090 N 
ATOM     32  H   UNL d   1       1.083   7.217   3.830  0.00  0.00     0.313 HD
ATOM     33  H   UNL d   1       1.584   7.918   5.206  0.00  0.00     0.313 HD
ENDBRANCH  22  31
ENDBRANCH  16  17
ENDBRANCH  11  16
BRANCH  12  34
ATOM     34  O   UNL d   1      -0.010   5.475   1.389  0.00  0.00    -0.388 OA
ATOM     35  H   UNL d   1       0.917   5.778   1.402  0.00  0.00     0.210 HD
ENDBRANCH  12  34
ENDBRANCH   7   8
ENDBRANCH   1   7
BRANCH   2  36
ATOM     36  O   UNL d   1       1.855   1.696  -1.109  0.00  0.00    -0.349 OA
BRANCH  36  37
ATOM     37  C   UNL d   1       1.356   0.376  -0.915  0.00  0.00     0.296 C 
ATOM     38  O   UNL d   1       2.106  -0.489  -1.842  0.00  0.00    -0.349 OA
ATOM     39  C   UNL d   1       3.535  -0.231  -1.748  0.00  0.00     0.183 C 
ATOM     40  C   UNL d   1       4.196  -0.772  -0.377  0.00  0.00     0.179 C 
ATOM     41  C   UNL d   1       3.319  -0.365   0.985  0.00  0.00     0.187 C 
ATOM     42  C   UNL d   1       1.847  -0.167   0.482  0.00  0.00     0.303 C 
BRANCH  39  43
ATOM     43  C   UNL d   1       4.067  -0.484  -3.148  0.00  0.00     0.301 C 
BRANCH  43  44
ATOM     44  N   UNL d   1       5.200   0.398  -3.388  0.00  0.00     0.080 N 
ATOM     45  H   UNL d   1       5.988  -0.130  -3.745  0.00  0.00     0.312 HD
ATOM     46  H   UNL d   1       4.960   1.097  -4.091  0.00  0.00     0.312 HD
ENDBRANCH  43  44
ENDBRANCH  39  43
BRANCH  40  47
ATOM     47  O   UNL d   1       5.475  -0.156  -0.216  0.00  0.00    -0.390 OA
ATOM     48  H   UNL d   1       5.719   0.274  -1.055  0.00  0.00     0.210 HD
ENDBRANCH  40  47
BRANCH  41  49
ATOM     49  O   UNL d   1       3.492  -1.285   2.046  0.00  0.00    -0.391 OA
ATOM     50  H   UNL d   1       2.958  -2.077   1.870  0.00  0.00     0.210 HD
ENDBRANCH  41  49
BRANCH  42  51
ATOM     51  N   UNL d   1       1.378  -1.559   0.402  0.00  0.00     0.090 N 
ATOM     52  H   UNL d   1       1.086  -1.868   1.335  0.00  0.00     0.313 HD
ATOM     53  H   UNL d   1       2.126  -2.183   0.110  0.00  0.00     0.313 HD
ENDBRANCH  42  51
ENDBRANCH  36  37
ENDBRANCH   2  36
BRANCH   6  54
ATOM     54  O   UNL d   1      -1.465   2.569  -0.812  0.00  0.00    -0.391 OA
ATOM     55  H   UNL d   1      -1.633   2.353  -1.749  0.00  0.00     0.210 HD
ENDBRANCH   6  54
BRANCH   3  56
ATOM     56  N   UNL d   1       2.313   3.579  -3.413  0.00  0.00     0.085 N 
ATOM     57  H   UNL d   1       2.744   4.468  -3.670  0.00  0.00     0.313 HD
ATOM     58  H   UNL d   1       1.882   3.240  -4.263  0.00  0.00     0.313 HD
ENDBRANCH   3  56
BRANCH   5  59
ATOM     59  N   UNL d   1      -2.892   4.239  -1.674  0.00  0.00     0.085 N 
ATOM     60  H   UNL d   1      -2.996   3.788  -0.752  0.00  0.00     0.313 HD
ATOM     61  H   UNL d   1      -3.186   3.473  -2.291  0.00  0.00     0.313 HD
ENDBRANCH   5  59
TORSDOF 22
