@<TRIPOS>MOLECULE
4LVY_LYA_A_101
 22 24 0 0 0
SMALL
GASTEIGER
****
Coordinates from PDB:4LVY:A:101 Model:1 without hydrogens
@<TRIPOS>ATOM
      1 C           4.5200    1.9210   20.1020 C.ar    1  UNL1       -0.0218
      2 C           5.1450    2.4670   18.9610 C.ar    1  UNL1       -0.0041
      3 C           6.4960    2.2170   18.7360 C.ar    1  UNL1        0.0043
      4 C           7.2150    1.4260   19.6490 C.ar    1  UNL1        0.0566
      5 C           6.5910    0.8850   20.8000 C.ar    1  UNL1        0.0043
      6 C           5.2440    1.1360   21.0230 C.ar    1  UNL1       -0.0041
      7 C           3.0300    2.2030   20.3750 C.3     1  UNL1        0.0311
      8 C           2.7460    3.4920   21.1860 C.3     1  UNL1        0.0329
      9 C           1.2680    3.7200   21.4810 C.ar    1  UNL1        0.0050
     10 C           0.2280    3.1890   20.7120 C.ar    1  UNL1        0.0965
     11 N          -0.9340    3.6010   21.2830 N.ar    1  UNL1       -0.2252
     12 C          -0.7210    4.3840   22.4000 C.ar    1  UNL1        0.1696
     13 C           0.6560    4.4850   22.5650 C.ar    1  UNL1        0.0913
     14 C           1.1320    5.2640   23.6870 C.ar    1  UNL1        0.2843
     15 O           2.4980    5.4010   23.9180 O.2     1  UNL1       -0.2650
     16 N           0.2090    5.8740   24.5260 N.ar    1  UNL1       -0.1723
     17 C          -1.1350    5.7390   24.3310 C.ar    1  UNL1        0.2606
     18 N          -1.6120    5.0240   23.3000 N.ar    1  UNL1       -0.1918
     19 N          -2.0710    6.3890   25.2540 N.pl3   1  UNL1       -0.0859
     20 C           8.6760    1.1760   19.3840 C.2     1  UNL1        0.2842
     21 O           9.1190    0.0290   19.3970 O.2     1  UNL1       -0.2667
     22 N           9.5370    2.2990   19.1240 N.am    1  UNL1       -0.0837
@<TRIPOS>BOND
     1     1     2   ar
     2     1     6   ar
     3     1     7    1
     4     2     3   ar
     5     3     4   ar
     6     4     5   ar
     7     4    20    1
     8     5     6   ar
     9     7     8    1
    10     8     9    1
    11     9    10   ar
    12     9    13   ar
    13    10    11   ar
    14    11    12   ar
    15    12    13   ar
    16    12    18   ar
    17    13    14   ar
    18    14    15    2
    19    14    16   ar
    20    16    17   ar
    21    17    18   ar
    22    17    19    1
    23    20    21    2
    24    20    22   am
