4LVY_LYA_A_101
 OpenBabel10091713583D
Coordinates from PDB:4LVY:A:101 Model:1 without hydrogens
 37 39  0  0  0  0  0  0  0  0999 V2000
    4.5200    1.9210   20.1020 C   0  0  0  0  0  0  0  0  0  0  0  0
    5.1450    2.4670   18.9610 C   0  0  0  0  0  0  0  0  0  0  0  0
    6.4960    2.2170   18.7360 C   0  0  0  0  0  0  0  0  0  0  0  0
    7.2150    1.4260   19.6490 C   0  0  0  0  0  0  0  0  0  0  0  0
    6.5910    0.8850   20.8000 C   0  0  0  0  0  0  0  0  0  0  0  0
    5.2440    1.1360   21.0230 C   0  0  0  0  0  0  0  0  0  0  0  0
    3.0300    2.2030   20.3750 C   0  0  0  0  0  0  0  0  0  0  0  0
    2.7460    3.4920   21.1860 C   0  0  0  0  0  0  0  0  0  0  0  0
    1.2680    3.7200   21.4810 C   0  0  0  0  0  0  0  0  0  0  0  0
    0.2280    3.1890   20.7120 C   0  0  0  0  0  0  0  0  0  0  0  0
   -0.9340    3.6010   21.2830 N   0  0  0  0  0  0  0  0  0  0  0  0
   -0.7210    4.3840   22.4000 C   0  0  0  0  0  0  0  0  0  0  0  0
    0.6560    4.4850   22.5650 C   0  0  0  0  0  0  0  0  0  0  0  0
    1.1320    5.2640   23.6870 C   0  0  0  0  0  0  0  0  0  0  0  0
    2.4980    5.4010   23.9180 O   0  0  0  0  0  0  0  0  0  0  0  0
    0.2090    5.8740   24.5260 N   0  0  0  0  0  0  0  0  0  0  0  0
   -1.1350    5.7390   24.3310 C   0  0  0  0  0  0  0  0  0  0  0  0
   -1.6120    5.0240   23.3000 N   0  0  0  0  0  0  0  0  0  0  0  0
   -2.0710    6.3890   25.2540 N   0  0  0  0  0  0  0  0  0  0  0  0
    8.6760    1.1760   19.3840 C   0  0  0  0  0  0  0  0  0  0  0  0
    9.1190    0.0290   19.3970 O   0  0  0  0  0  0  0  0  0  0  0  0
    9.5370    2.2990   19.1240 N   0  0  0  0  0  0  0  0  0  0  0  0
    4.6055    3.0465   18.2991 H   0  0  0  0  0  0  0  0  0  0  0  0
    6.9660    2.6094   17.9053 H   0  0  0  0  0  0  0  0  0  0  0  0
    7.1318    0.3107   21.4653 H   0  0  0  0  0  0  0  0  0  0  0  0
    4.7753    0.7505   21.8577 H   0  0  0  0  0  0  0  0  0  0  0  0
    2.6293    1.3734   20.9191 H   0  0  0  0  0  0  0  0  0  0  0  0
    2.5720    2.3444   19.4183 H   0  0  0  0  0  0  0  0  0  0  0  0
    3.1117    4.3288   20.6285 H   0  0  0  0  0  0  0  0  0  0  0  0
    3.2387    3.3816   22.1294 H   0  0  0  0  0  0  0  0  0  0  0  0
    0.3245    2.5976   19.8718 H   0  0  0  0  0  0  0  0  0  0  0  0
   -1.8265    3.3677   20.9393 H   0  0  0  0  0  0  0  0  0  0  0  0
   -2.5842    4.9433   23.1677 H   0  0  0  0  0  0  0  0  0  0  0  0
   -1.7289    6.9151   26.0125 H   0  0  0  0  0  0  0  0  0  0  0  0
   -3.0415    6.2993   25.1151 H   0  0  0  0  0  0  0  0  0  0  0  0
    9.1673    3.2114   19.1170 H   0  0  0  0  0  0  0  0  0  0  0  0
   10.4958    2.1550   18.9531 H   0  0  0  0  0  0  0  0  0  0  0  0
  1  2  2  0  0  0  0
  1  6  1  0  0  0  0
  1  7  1  0  0  0  0
  2  3  1  0  0  0  0
  2 23  1  0  0  0  0
  3  4  2  0  0  0  0
  3 24  1  0  0  0  0
  4  5  1  0  0  0  0
  4 20  1  0  0  0  0
  5  6  2  0  0  0  0
  5 25  1  0  0  0  0
  6 26  1  0  0  0  0
  7  8  1  0  0  0  0
  7 27  1  0  0  0  0
  7 28  1  0  0  0  0
  8  9  1  0  0  0  0
  8 29  1  0  0  0  0
  8 30  1  0  0  0  0
  9 10  2  0  0  0  0
  9 13  1  0  0  0  0
 10 11  1  0  0  0  0
 10 31  1  0  0  0  0
 11 12  1  0  0  0  0
 11 32  1  0  0  0  0
 12 13  2  0  0  0  0
 12 18  1  0  0  0  0
 13 14  1  0  0  0  0
 14 15  2  0  0  0  0
 14 16  1  0  0  0  0
 16 17  2  0  0  0  0
 17 18  1  0  0  0  0
 17 19  1  0  0  0  0
 18 33  1  0  0  0  0
 19 34  1  0  0  0  0
 19 35  1  0  0  0  0
 20 21  2  0  0  0  0
 20 22  1  0  0  0  0
 22 36  1  0  0  0  0
 22 37  1  0  0  0  0
A    1
C1
A    2
C2
A    3
C3
A    4
C4
A    5
C5
A    6
C6
A    7
C7
A    8
C8
A    9
C9
A   10
C10
A   11
N11
A   12
C12
A   13
C13
A   14
C14
A   15
O15
A   16
N16
A   17
C17
A   18
N18
A   19
N19
A   20
C20
A   21
O21
A   22
N22
M  END
>  <InstanceId>
4LVY_LYA_A_101

>  <ChemCompId>
LYA

>  <PdbId>
4LVY

>  <ChainId>
A

>  <ResidueNumber>
101

>  <InsertionCode>


>  <Model>
1

>  <AltIds>


>  <MissingHeavyAtoms>
9

>  <ObservedFormula>
C15 N5 O2

>  <Name>
2-{4-[2-(2-AMINO-4-OXO-4,7-DIHYDRO-3H-PYRROLO[2,3-D]PYRIMIDIN-5-YL)-ETHYL]-BENZOYLAMINO}-PENTANEDIOIC ACID

>  <SystematicName>
(2S)-2-[[4-[2-(2-amino-4-oxo-1,7-dihydropyrrolo[4,5-e]pyrimidin-5-yl)ethyl]phenyl]carbonylamino]pentanedioic acid

>  <Synonyms>
LY231514

>  <Type>
NON-POLYMER

>  <Formula>
C20 H21 N5 O6

>  <MolecularWeight>
427.411

>  <ModifiedDate>
2011-06-04

>  <Parent>


>  <OneLetterCode>


>  <SubcomponentList>


>  <AmbiguousFlag>
N

>  <InChI>
InChI=1S/C20H21N5O6/c21-20-24-16-15(18(29)25-20)12(9-22-16)6-3-10-1-4-11(5-2-10)17(28)23-13(19(30)31)7-8-14(26)27/h1-2,4-5,9,13H,3,6-8H2,(H,23,28)(H,26,27)(H,30,31)(H4,21,22,24,25,29)/t13-/m0/s1

>  <InChIKey>
WBXPDJSOTKVWSJ-ZDUSSCGKSA-N

>  <SMILES>
c1cc(ccc1CCc2c[nH]c3c2C(=O)N=C(N3)N)C(=O)N[C@@H](CCC(=O)O)C(=O)O

$$$$
