4LVZ_6AP_A_101
 OpenBabel10091713583D
Coordinates from PDB:4LVZ:A:101 Model:1 without hydrogens
 17 18  0  0  0  0  0  0  0  0999 V2000
    0.0370  -20.6500   27.3630 N   0  0  0  0  0  0  0  0  0  0  0  0
   -0.5490  -21.2270   26.2950 C   0  0  0  0  0  0  0  0  0  0  0  0
    0.3430  -21.2900   25.2860 N   0  0  0  0  0  0  0  0  0  0  0  0
    1.5380  -20.7420   25.7120 C   0  0  0  0  0  0  0  0  0  0  0  0
    1.3440  -20.3340   27.0190 C   0  0  0  0  0  0  0  0  0  0  0  0
    2.3860  -19.7480   27.7020 N   0  0  0  0  0  0  0  0  0  0  0  0
    3.5830  -19.5580   27.1190 C   0  0  0  0  0  0  0  0  0  0  0  0
    4.6250  -18.9420   27.8850 N   0  0  0  0  0  0  0  0  0  0  0  0
    3.8000  -19.9460   25.8380 N   0  0  0  0  0  0  0  0  0  0  0  0
    2.8190  -20.5340   25.1190 C   0  0  0  0  0  0  0  0  0  0  0  0
    3.0550  -20.9460   23.7690 N   0  0  0  0  0  0  0  0  0  0  0  0
   -0.3880  -20.4820   28.2350 H   0  0  0  0  0  0  0  0  0  0  0  0
   -1.5230  -21.5658   26.2560 H   0  0  0  0  0  0  0  0  0  0  0  0
    4.4547  -18.6648   28.8142 H   0  0  0  0  0  0  0  0  0  0  0  0
    5.5114  -18.7959   27.4823 H   0  0  0  0  0  0  0  0  0  0  0  0
    2.3347  -21.3738   23.2518 H   0  0  0  0  0  0  0  0  0  0  0  0
    3.9376  -20.8016   23.3574 H   0  0  0  0  0  0  0  0  0  0  0  0
  1  2  1  0  0  0  0
  1  5  1  0  0  0  0
  1 12  1  0  0  0  0
  2  3  2  0  0  0  0
  2 13  1  0  0  0  0
  3  4  1  0  0  0  0
  4  5  2  0  0  0  0
  4 10  1  0  0  0  0
  5  6  1  0  0  0  0
  6  7  2  0  0  0  0
  7  8  1  0  0  0  0
  7  9  1  0  0  0  0
  8 14  1  0  0  0  0
  8 15  1  0  0  0  0
  9 10  2  0  0  0  0
 10 11  1  0  0  0  0
 11 16  1  0  0  0  0
 11 17  1  0  0  0  0
M  END
$$$$
