4LVZ_6AP_A_101
 OpenBabel10091713583D
Coordinates from PDB:4LVZ:A:101 Model:1 without hydrogens
 11 12  0  0  0  0  0  0  0  0999 V2000
    0.0370  -20.6500   27.3630 N   0  0  0  0  0  0  0  0  0  0  0  0
   -0.5490  -21.2270   26.2950 C   0  0  0  0  0  0  0  0  0  0  0  0
    0.3430  -21.2900   25.2860 N   0  0  0  0  0  0  0  0  0  0  0  0
    1.5380  -20.7420   25.7120 C   0  0  0  0  0  0  0  0  0  0  0  0
    1.3440  -20.3340   27.0190 C   0  0  0  0  0  0  0  0  0  0  0  0
    2.3860  -19.7480   27.7020 N   0  0  0  0  0  0  0  0  0  0  0  0
    3.5830  -19.5580   27.1190 C   0  0  0  0  0  0  0  0  0  0  0  0
    4.6250  -18.9420   27.8850 N   0  0  0  0  0  0  0  0  0  0  0  0
    3.8000  -19.9460   25.8380 N   0  0  0  0  0  0  0  0  0  0  0  0
    2.8190  -20.5340   25.1190 C   0  0  0  0  0  0  0  0  0  0  0  0
    3.0550  -20.9460   23.7690 N   0  0  0  0  0  0  0  0  0  0  0  0
  1  2  1  0  0  0  0
  1  5  1  0  0  0  0
  2  3  2  0  0  0  0
  3  4  1  0  0  0  0
  4  5  1  0  0  0  0
  4 10  2  0  0  0  0
  5  6  2  0  0  0  0
  6  7  1  0  0  0  0
  7  8  1  0  0  0  0
  7  9  2  0  0  0  0
  9 10  1  0  0  0  0
 10 11  1  0  0  0  0
A    1
N9
A    2
C8
A    3
N7
A    4
C5
A    5
C4
A    6
N3
A    7
C2
A    8
N2
A    9
N1
A   10
C6
A   11
N6
M  END
>  <InstanceId>
4LVZ_6AP_A_101

>  <ChemCompId>
6AP

>  <PdbId>
4LVZ

>  <ChainId>
A

>  <ResidueNumber>
101

>  <InsertionCode>


>  <Model>
1

>  <AltIds>


>  <MissingHeavyAtoms>
0

>  <ObservedFormula>
C5 N6

>  <Name>
9H-PURINE-2,6-DIAMINE

>  <SystematicName>
9H-purine-2,6-diamine

>  <Synonyms>
2,6-DIAMINOPURINE

>  <Type>
NON-POLYMER

>  <Formula>
C5 H6 N6

>  <MolecularWeight>
150.141

>  <ModifiedDate>
2011-06-04

>  <Parent>


>  <OneLetterCode>


>  <SubcomponentList>


>  <AmbiguousFlag>
N

>  <InChI>
InChI=1S/C5H6N6/c6-3-2-4(9-1-8-2)11-5(7)10-3/h1H,(H5,6,7,8,9,10,11)

>  <InChIKey>
MSSXOMSJDRHRMC-UHFFFAOYSA-N

>  <SMILES>
c1[nH]c2c(n1)c(nc(n2)N)N

$$$$
