@<TRIPOS>MOLECULE
4LVZ_6AP_A_101
 11 12 0 0 0
SMALL
GASTEIGER
****
Coordinates from PDB:4LVZ:A:101 Model:1 without hydrogens
@<TRIPOS>ATOM
      1 N           0.0370  -20.6500   27.3630 N.ar    1  UNL1       -0.2031
      2 C          -0.5490  -21.2270   26.2950 C.ar    1  UNL1        0.2005
      3 N           0.3430  -21.2900   25.2860 N.ar    1  UNL1       -0.2179
      4 C           1.5380  -20.7420   25.7120 C.ar    1  UNL1        0.1535
      5 C           1.3440  -20.3340   27.0190 C.ar    1  UNL1        0.1874
      6 N           2.3860  -19.7480   27.7020 N.ar    1  UNL1       -0.1903
      7 C           3.5830  -19.5580   27.1190 C.ar    1  UNL1        0.2593
      8 N           4.6250  -18.9420   27.8850 N.pl3   1  UNL1       -0.0860
      9 N           3.8000  -19.9460   25.8380 N.ar    1  UNL1       -0.1912
     10 C           2.8190  -20.5340   25.1190 C.ar    1  UNL1        0.1931
     11 N           3.0550  -20.9460   23.7690 N.pl3   1  UNL1       -0.1054
@<TRIPOS>BOND
     1     1     2   ar
     2     1     5   ar
     3     2     3   ar
     4     3     4   ar
     5     4     5   ar
     6     4    10   ar
     7     5     6   ar
     8     6     7   ar
     9     7     8    1
    10     7     9   ar
    11     9    10   ar
    12    10    11    1
