REMARK  0 active torsions:
REMARK  status: ('A' for Active; 'I' for Inactive)
ROOT
ATOM      1  N   UNL d   1       0.037 -20.650  27.363  0.00  0.00    -0.203 NA
ATOM      2  C   UNL d   1      -0.549 -21.227  26.295  0.00  0.00     0.201 A 
ATOM      3  N   UNL d   1       0.343 -21.290  25.286  0.00  0.00    -0.218 NA
ATOM      4  C   UNL d   1       1.538 -20.742  25.712  0.00  0.00     0.150 A 
ATOM      5  C   UNL d   1       1.344 -20.334  27.019  0.00  0.00     0.187 A 
ATOM      6  N   UNL d   1       2.386 -19.748  27.702  0.00  0.00    -0.194 NA
ATOM      7  C   UNL d   1       3.583 -19.558  27.119  0.00  0.00     0.240 A 
ATOM      8  N   UNL d   1       4.625 -18.942  27.885  0.00  0.00    -0.059 NA
ATOM      9  N   UNL d   1       3.800 -19.946  25.838  0.00  0.00    -0.199 NA
ATOM     10  C   UNL d   1       2.819 -20.534  25.119  0.00  0.00     0.174 A 
ATOM     11  N   UNL d   1       3.055 -20.946  23.769  0.00  0.00    -0.078 NA
ENDROOT
TORSDOF 0
