REMARK  6 active torsions:
REMARK  status: ('A' for Active; 'I' for Inactive)
REMARK    1  A    between atoms: C_8  and  C_10 
REMARK    2  A    between atoms: C_10  and  N_11 
REMARK    3  A    between atoms: N_14  and  C_18 
REMARK    4  A    between atoms: C_18  and  C_19 
REMARK    5  A    between atoms: C_19  and  C_20 
REMARK    6  A    between atoms: C_20  and  N_21 
ROOT
ATOM      1  C   UNL d   1      -0.704   1.844  -0.097  0.00  0.00     0.040 A 
ATOM      2  C   UNL d   1       0.696   1.902  -0.070  0.00  0.00     0.037 A 
ATOM      3  C   UNL d   1       1.428   0.711  -0.042  0.00  0.00     0.104 A 
ATOM      4  C   UNL d   1       0.740  -0.482  -0.026  0.00  0.00     0.090 A 
ATOM      5  C   UNL d   1      -0.615  -0.658  -0.032  0.00  0.00     0.008 A 
ATOM      6  C   UNL d   1      -1.316   0.597  -0.099  0.00  0.00     0.078 A 
ATOM      7  O   UNL d   1      -2.695   0.451  -0.136  0.00  0.00    -0.343 OA
ATOM      8  C   UNL d   1      -2.898  -0.978  -0.329  0.00  0.00     0.161 C 
ATOM      9  C   UNL d   1      -1.610  -1.726   0.058  0.00  0.00     0.078 C 
ATOM     10  N   UNL d   1       1.669  -1.468   0.017  0.00  0.00    -0.179 N 
ATOM     11  C   UNL d   1       2.900  -0.836   0.036  0.00  0.00     0.701 A 
ATOM     12  N   UNL d   1       4.061  -1.508   0.086  0.00  0.00    -0.233 N 
ATOM     13  N   UNL d   1       2.776   0.472  -0.008  0.00  0.00    -0.063 NA
ATOM     14  H   UNL d   1       4.121  -2.452  -0.299  0.00  0.00     0.174 HD
ATOM     15  H   UNL d   1       4.889  -0.952  -0.101  0.00  0.00     0.174 HD
ENDROOT
BRANCH  10  16
ATOM     16  C   UNL d   1       1.451  -2.899   0.074  0.00  0.00     0.149 C 
BRANCH  16  17
ATOM     17  C   UNL d   1       1.223  -3.540  -1.299  0.00  0.00     0.051 C 
BRANCH  17  18
ATOM     18  C   UNL d   1       2.480  -3.615  -2.175  0.00  0.00     0.273 C 
BRANCH  18  19
ATOM     19  N   UNL d   1       3.626  -4.269  -1.517  0.00  0.00     0.080 N 
ATOM     20  C   UNL d   1       3.345  -5.678  -1.215  0.00  0.00     0.309 C 
ATOM     21  C   UNL d   1       4.808  -4.186  -2.383  0.00  0.00     0.309 C 
ENDBRANCH  18  19
ENDBRANCH  17  18
ENDBRANCH  16  17
ENDBRANCH  10  16
BRANCH   8  22
ATOM     22  C   UNL d   1      -4.159  -1.505   0.389  0.00  0.00     0.303 C 
BRANCH  22  23
ATOM     23  N   UNL d   1      -4.165  -1.502   1.870  0.00  0.00     0.082 N 
ATOM     24  C   UNL d   1      -4.112  -0.139   2.410  0.00  0.00     0.309 C 
ATOM     25  C   UNL d   1      -5.376  -2.168   2.361  0.00  0.00     0.309 C 
ENDBRANCH  22  23
ENDBRANCH   8  22
TORSDOF 6
