@<TRIPOS>MOLECULE
2KU0_ISI_A_39
 50 52 0 0 0
SMALL
GASTEIGER

@<TRIPOS>ATOM
      1 C          -0.7040    1.8437   -0.0965 C.ar    1  UNL1       -0.0175
      2 C           0.6957    1.9024   -0.0705 C.ar    1  UNL1       -0.0307
      3 C           1.4276    0.7112   -0.0423 C.ar    1  UNL1        0.0914
      4 C           0.7404   -0.4822   -0.0260 C.ar    1  UNL1        0.0769
      5 C          -0.6150   -0.6584   -0.0322 C.ar    1  UNL1        0.0234
      6 C          -1.3158    0.5966   -0.0987 C.ar    1  UNL1        0.1263
      7 O          -2.6949    0.4511   -0.1360 O.3     1  UNL1       -0.4869
      8 C          -2.8985   -0.9783   -0.3287 C.3     1  UNL1        0.1169
      9 H          -3.0630   -1.1037   -1.4090 H       1  UNL1        0.0749
     10 C          -1.6098   -1.7257    0.0576 C.3     1  UNL1        0.0162
     11 C          -4.1594   -1.5047    0.3894 C.3     1  UNL1        0.0357
     12 N          -4.1646   -1.5018    1.8704 N.3     1  UNL1       -0.3048
     13 C          -4.1117   -0.1389    2.4099 C.3     1  UNL1       -0.0129
     14 C          -5.3760   -2.1681    2.3609 C.3     1  UNL1       -0.0129
     15 N           1.6686   -1.4679    0.0167 N.ar    1  UNL1       -0.3117
     16 C           2.8996   -0.8356    0.0360 C.ar    1  UNL1        0.1940
     17 N           4.0612   -1.5084    0.0861 N.pl3   1  UNL1       -0.3288
     18 N           2.7759    0.4722   -0.0084 N.ar    1  UNL1       -0.2146
     19 C           1.4506   -2.8993    0.0737 C.3     1  UNL1        0.0276
     20 C           1.2228   -3.5397   -1.2992 C.3     1  UNL1       -0.0221
     21 C           2.4798   -3.6146   -2.1753 C.3     1  UNL1       -0.0001
     22 N           3.6259   -4.2690   -1.5168 N.3     1  UNL1       -0.3083
     23 C           3.3447   -5.6782   -1.2153 C.3     1  UNL1       -0.0130
     24 C           4.8083   -4.1861   -2.3826 C.3     1  UNL1       -0.0130
     25 H          -1.3057    2.7441   -0.1099 H       1  UNL1        0.0655
     26 H           1.2128    2.8550   -0.0658 H       1  UNL1        0.0641
     27 H          -1.4382   -2.5579   -0.6288 H       1  UNL1        0.0351
     28 H          -1.6461   -2.1205    1.0779 H       1  UNL1        0.0351
     29 H          -5.0299   -0.9493    0.0180 H       1  UNL1        0.0463
     30 H          -4.2803   -2.5471    0.0625 H       1  UNL1        0.0463
     31 H          -3.1270    0.3088    2.2565 H       1  UNL1        0.0391
     32 H          -4.2608   -0.1438    3.4959 H       1  UNL1        0.0391
     33 H          -4.8752    0.5110    1.9668 H       1  UNL1        0.0391
     34 H          -5.3977   -3.2141    2.0361 H       1  UNL1        0.0391
     35 H          -6.2896   -1.6754    2.0085 H       1  UNL1        0.0391
     36 H          -5.3941   -2.1831    3.4567 H       1  UNL1        0.0391
     37 H           4.1207   -2.4517   -0.2987 H       1  UNL1        0.1451
     38 H           4.8889   -0.9518   -0.1011 H       1  UNL1        0.1451
     39 H           0.5796   -3.0731    0.7128 H       1  UNL1        0.0493
     40 H           2.2858   -3.3620    0.6087 H       1  UNL1        0.0493
     41 H           0.4582   -2.9861   -1.8571 H       1  UNL1        0.0295
     42 H           0.8149   -4.5471   -1.1538 H       1  UNL1        0.0295
     43 H           2.7582   -2.5903   -2.4537 H       1  UNL1        0.0427
     44 H           2.2274   -4.1287   -3.1127 H       1  UNL1        0.0427
     45 H           2.5565   -5.7706   -0.4611 H       1  UNL1        0.0391
     46 H           4.2269   -6.1650   -0.7851 H       1  UNL1        0.0391
     47 H           3.0404   -6.2394   -2.1062 H       1  UNL1        0.0391
     48 H           5.0625   -3.1403   -2.5871 H       1  UNL1        0.0391
     49 H           4.6596   -4.7014   -3.3382 H       1  UNL1        0.0391
     50 H           5.6777   -4.6262   -1.8816 H       1  UNL1        0.0391
@<TRIPOS>BOND
     1     1     2   ar
     2     1     6   ar
     3     1    25    1
     4     2     3   ar
     5     2    26    1
     6     3     4   ar
     7     3    18   ar
     8     4     5   ar
     9     4    15   ar
    10     5     6   ar
    11     5    10    1
    12     6     7    1
    13     7     8    1
    14     8    10    1
    15     8    11    1
    16     8     9    1
    17    10    27    1
    18    10    28    1
    19    11    12    1
    20    11    29    1
    21    11    30    1
    22    12    13    1
    23    12    14    1
    24    13    31    1
    25    13    32    1
    26    13    33    1
    27    14    34    1
    28    14    35    1
    29    14    36    1
    30    15    16   ar
    31    15    19    1
    32    16    17    1
    33    16    18   ar
    34    17    37    1
    35    17    38    1
    36    19    20    1
    37    19    39    1
    38    19    40    1
    39    20    21    1
    40    20    41    1
    41    20    42    1
    42    21    22    1
    43    21    43    1
    44    21    44    1
    45    22    23    1
    46    22    24    1
    47    23    45    1
    48    23    46    1
    49    23    47    1
    50    24    48    1
    51    24    49    1
    52    24    50    1
