3BNQ_PAR_C_101
 OpenBabel10091713573D
Coordinates from PDB:3BNQ:C:101 Model:1 without hydrogens
 87 90  0  0  1  0  0  0  0  0999 V2000
  -28.6550   26.5890   24.0680 C   0  0  2  0  0  0  0  0  0  0  0  0
  -29.5100   25.6060   24.0860 O   0  0  0  0  0  0  0  0  0  0  0  0
  -27.5800   26.4890   22.8910 C   0  0  2  0  0  0  0  0  0  0  0  0
  -28.2130   26.3310   21.6410 N   0  0  0  0  0  0  0  0  0  0  0  0
  -26.5570   25.3130   23.1710 C   0  0  1  0  0  0  0  0  0  0  0  0
  -25.6340   25.3070   22.1030 O   0  0  0  0  0  0  0  0  0  0  0  0
  -25.8750   25.5510   24.6110 C   0  0  2  0  0  0  0  0  0  0  0  0
  -24.9060   24.4410   24.8650 O   0  0  0  0  0  0  0  0  0  0  0  0
  -27.0320   25.5550   25.7610 C   0  0  2  0  0  0  0  0  0  0  0  0
  -27.9340   26.7110   25.3860 O   0  0  0  0  0  0  0  0  0  0  0  0
  -26.4250   25.7860   27.0640 C   0  0  0  0  0  0  0  0  0  0  0  0
  -27.4190   25.7670   27.9280 O   0  0  0  0  0  0  0  0  0  0  0  0
  -33.7250   24.8600   24.8150 C   0  0  2  0  0  0  0  0  0  0  0  0
  -35.1450   25.1030   25.2680 N   0  0  0  0  0  0  0  0  0  0  0  0
  -32.7490   25.0700   26.1520 C   0  0  0  0  0  0  0  0  0  0  0  0
  -31.2040   24.8110   25.7260 C   0  0  2  0  0  0  0  0  0  0  0  0
  -30.2850   24.9970   26.8780 N   0  0  0  0  0  0  0  0  0  0  0  0
  -30.8070   25.8400   24.4580 C   0  0  2  0  0  0  0  0  0  0  0  0
  -31.8020   25.6250   23.2200 C   0  0  2  0  0  0  0  0  0  0  0  0
  -31.3530   26.5900   22.1960 O   0  0  0  0  0  0  0  0  0  0  0  0
  -33.2790   25.9000   23.6670 C   0  0  1  0  0  0  0  0  0  0  0  0
  -34.1320   25.6940   22.5450 O   0  0  0  0  0  0  0  0  0  0  0  0
  -31.6910   26.3710   20.8140 C   0  0  1  0  0  0  0  0  0  0  0  0
  -32.6320   27.3090   20.1180 C   0  0  2  0  0  0  0  0  0  0  0  0
  -33.0940   26.7760   18.8600 O   0  0  0  0  0  0  0  0  0  0  0  0
  -31.7850   28.5600   20.0950 C   0  0  2  0  0  0  0  0  0  0  0  0
  -32.2820   29.6980   19.5320 O   0  0  0  0  0  0  0  0  0  0  0  0
  -30.4360   28.0910   19.5000 C   0  0  2  0  0  0  0  0  0  0  0  0
  -30.4830   26.6670   20.0340 O   0  0  0  0  0  0  0  0  0  0  0  0
  -29.1120   28.8840   20.0560 C   0  0  0  0  0  0  0  0  0  0  0  0
  -29.1810   29.0970   21.4270 O   0  0  0  0  0  0  0  0  0  0  0  0
  -33.3770   30.3490   20.1350 C   0  0  2  0  0  0  0  0  0  0  0  0
  -33.6940   31.6020   19.1890 C   0  0  2  0  0  0  0  0  0  0  0  0
  -32.4400   32.4310   19.0730 N   0  0  0  0  0  0  0  0  0  0  0  0
  -34.9590   32.3620   19.8790 C   0  0  1  0  0  0  0  0  0  0  0  0
  -36.0660   31.4020   19.9020 O   0  0  0  0  0  0  0  0  0  0  0  0
  -34.5600   32.8660   21.4350 C   0  0  2  0  0  0  0  0  0  0  0  0
  -33.4430   33.8340   21.4100 O   0  0  0  0  0  0  0  0  0  0  0  0
  -34.1720   31.5200   22.3330 C   0  0  1  0  0  0  0  0  0  0  0  0
  -33.0260   30.8160   21.6010 O   0  0  0  0  0  0  0  0  0  0  0  0
  -33.7690   31.9650   23.8020 C   0  0  0  0  0  0  0  0  0  0  0  0
  -33.1000   30.8910   24.4980 N   0  0  0  0  0  0  0  0  0  0  0  0
  -29.2437   27.4642   23.8881 H   0  0  0  0  0  0  0  0  0  0  0  0
  -27.0291   27.4057   22.8595 H   0  0  0  0  0  0  0  0  0  0  0  0
  -28.7486   25.4629   21.6384 H   0  0  0  0  0  0  0  0  0  0  0  0
  -27.5080   26.2977   20.9047 H   0  0  0  0  0  0  0  0  0  0  0  0
  -27.0249   24.3517   23.2139 H   0  0  0  0  0  0  0  0  0  0  0  0
  -25.1983   26.1719   22.0473 H   0  0  0  0  0  0  0  0  0  0  0  0
  -25.3625   26.4900   24.6311 H   0  0  0  0  0  0  0  0  0  0  0  0
  -25.3747   23.5920   24.8459 H   0  0  0  0  0  0  0  0  0  0  0  0
  -27.5655   24.6293   25.8191 H   0  0  0  0  0  0  0  0  0  0  0  0
  -25.9321   26.7355   27.0830 H   0  0  0  0  0  0  0  0  0  0  0  0
  -25.6877   25.0452   27.2934 H   0  0  0  0  0  0  0  0  0  0  0  0
  -28.0668   26.4489   27.6907 H   0  0  0  0  0  0  0  0  0  0  0  0
  -33.6419   23.8756   24.4040 H   0  0  0  0  0  0  0  0  0  0  0  0
  -35.2211   26.0419   25.6592 H   0  0  0  0  0  0  0  0  0  0  0  0
  -35.3971   24.4168   25.9794 H   0  0  0  0  0  0  0  0  0  0  0  0
  -33.0318   24.3752   26.9150 H   0  0  0  0  0  0  0  0  0  0  0  0
  -32.8582   26.0666   26.5258 H   0  0  0  0  0  0  0  0  0  0  0  0
  -31.0946   23.7961   25.4053 H   0  0  0  0  0  0  0  0  0  0  0  0
  -30.3563   25.9559   27.2184 H   0  0  0  0  0  0  0  0  0  0  0  0
  -29.3267   24.8117   26.5818 H   0  0  0  0  0  0  0  0  0  0  0  0
  -30.9068   26.8559   24.7787 H   0  0  0  0  0  0  0  0  0  0  0  0
  -31.7838   24.6244   22.8415 H   0  0  0  0  0  0  0  0  0  0  0  0
  -33.3482   26.9002   24.0408 H   0  0  0  0  0  0  0  0  0  0  0  0
  -34.0427   24.7794   22.2346 H   0  0  0  0  0  0  0  0  0  0  0  0
  -32.1212   25.3919   20.8493 H   0  0  0  0  0  0  0  0  0  0  0  0
  -33.5795   27.4913   20.5804 H   0  0  0  0  0  0  0  0  0  0  0  0
  -32.3313   26.5522   18.3040 H   0  0  0  0  0  0  0  0  0  0  0  0
  -31.7171   28.9384   21.0935 H   0  0  0  0  0  0  0  0  0  0  0  0
  -30.3420   28.2377   18.4443 H   0  0  0  0  0  0  0  0  0  0  0  0
  -29.0405   29.8299   19.5609 H   0  0  0  0  0  0  0  0  0  0  0  0
  -28.2516   28.2807   19.8542 H   0  0  0  0  0  0  0  0  0  0  0  0
  -29.9563   29.6432   21.6307 H   0  0  0  0  0  0  0  0  0  0  0  0
  -34.2219   29.6993   20.2294 H   0  0  0  0  0  0  0  0  0  0  0  0
  -33.9652   31.3512   18.1848 H   0  0  0  0  0  0  0  0  0  0  0  0
  -32.1263   32.7051   20.0041 H   0  0  0  0  0  0  0  0  0  0  0  0
  -32.6343   33.2659   18.5202 H   0  0  0  0  0  0  0  0  0  0  0  0
  -35.2339   33.2377   19.3290 H   0  0  0  0  0  0  0  0  0  0  0  0
  -35.8012   30.6151   20.4035 H   0  0  0  0  0  0  0  0  0  0  0  0
  -35.3932   33.3686   21.8800 H   0  0  0  0  0  0  0  0  0  0  0  0
  -32.6628   33.4172   21.0121 H   0  0  0  0  0  0  0  0  0  0  0  0
  -34.9965   30.8451   22.4317 H   0  0  0  0  0  0  0  0  0  0  0  0
  -34.6526   32.2357   24.3413 H   0  0  0  0  0  0  0  0  0  0  0  0
  -33.1021   32.7992   23.7368 H   0  0  0  0  0  0  0  0  0  0  0  0
  -33.7260   30.0886   24.5670 H   0  0  0  0  0  0  0  0  0  0  0  0
  -32.8412   31.2018   25.4344 H   0  0  0  0  0  0  0  0  0  0  0  0
  1  2  1  0  0  0  0
  1  3  1  0  0  0  0
  1 10  1  0  0  0  0
  1 43  1  6  0  0  0
  2 18  1  0  0  0  0
  3  4  1  0  0  0  0
  3  5  1  0  0  0  0
  3 44  1  6  0  0  0
  4 45  1  0  0  0  0
  4 46  1  0  0  0  0
  5  6  1  0  0  0  0
  5  7  1  0  0  0  0
  5 47  1  1  0  0  0
  6 48  1  0  0  0  0
  7  8  1  0  0  0  0
  7  9  1  0  0  0  0
  7 49  1  1  0  0  0
  8 50  1  0  0  0  0
  9 10  1  0  0  0  0
  9 11  1  0  0  0  0
  9 51  1  6  0  0  0
 11 12  1  0  0  0  0
 11 52  1  0  0  0  0
 11 53  1  0  0  0  0
 12 54  1  0  0  0  0
 13 14  1  0  0  0  0
 13 15  1  0  0  0  0
 13 21  1  0  0  0  0
 13 55  1  6  0  0  0
 14 56  1  0  0  0  0
 14 57  1  0  0  0  0
 15 16  1  0  0  0  0
 15 58  1  0  0  0  0
 15 59  1  0  0  0  0
 16 17  1  0  0  0  0
 16 18  1  0  0  0  0
 16 60  1  6  0  0  0
 17 61  1  0  0  0  0
 17 62  1  0  0  0  0
 18 19  1  0  0  0  0
 18 63  1  1  0  0  0
 19 20  1  0  0  0  0
 19 21  1  0  0  0  0
 19 64  1  6  0  0  0
 20 23  1  0  0  0  0
 21 22  1  0  0  0  0
 21 65  1  1  0  0  0
 22 66  1  0  0  0  0
 23 24  1  0  0  0  0
 23 29  1  0  0  0  0
 23 67  1  6  0  0  0
 24 25  1  0  0  0  0
 24 26  1  0  0  0  0
 24 68  1  1  0  0  0
 25 69  1  0  0  0  0
 26 27  1  0  0  0  0
 26 28  1  0  0  0  0
 26 70  1  1  0  0  0
 27 32  1  0  0  0  0
 28 29  1  0  0  0  0
 28 30  1  0  0  0  0
 28 71  1  6  0  0  0
 30 31  1  0  0  0  0
 30 72  1  0  0  0  0
 30 73  1  0  0  0  0
 31 74  1  0  0  0  0
 32 33  1  0  0  0  0
 32 40  1  0  0  0  0
 32 75  1  1  0  0  0
 33 34  1  0  0  0  0
 33 35  1  0  0  0  0
 33 76  1  6  0  0  0
 34 77  1  0  0  0  0
 34 78  1  0  0  0  0
 35 36  1  0  0  0  0
 35 37  1  0  0  0  0
 35 79  1  6  0  0  0
 36 80  1  0  0  0  0
 37 38  1  0  0  0  0
 37 39  1  0  0  0  0
 37 81  1  1  0  0  0
 38 82  1  0  0  0  0
 39 40  1  0  0  0  0
 39 41  1  0  0  0  0
 39 83  1  1  0  0  0
 41 42  1  0  0  0  0
 41 84  1  0  0  0  0
 41 85  1  0  0  0  0
 42 86  1  0  0  0  0
 42 87  1  0  0  0  0
M  END
$$$$
