@<TRIPOS>MOLECULE
3BNQ_PAR_C_101
 42 45 0 0 0
SMALL
GASTEIGER
****
Coordinates from PDB:3BNQ:C:101 Model:1 without hydrogens
@<TRIPOS>ATOM
      1 C         -28.6550   26.5890   24.0680 C.3     1  UNL1        0.2561
      2 O         -29.5100   25.6060   24.0860 O.3     1  UNL1       -0.3278
      3 C         -27.5800   26.4890   22.8910 C.3     1  UNL1        0.1807
      4 N         -28.2130   26.3310   21.6410 N.3     1  UNL1       -0.1248
      5 C         -26.5570   25.3130   23.1710 C.3     1  UNL1        0.2070
      6 O         -25.6340   25.3070   22.1030 O.3     1  UNL1       -0.2186
      7 C         -25.8750   25.5510   24.6110 C.3     1  UNL1        0.2133
      8 O         -24.9060   24.4410   24.8650 O.3     1  UNL1       -0.2176
      9 C         -27.0320   25.5550   25.7610 C.3     1  UNL1        0.1834
     10 O         -27.9340   26.7110   25.3860 O.3     1  UNL1       -0.3264
     11 C         -26.4250   25.7860   27.0640 C.3     1  UNL1        0.2142
     12 O         -27.4190   25.7670   27.9280 O.3     1  UNL1       -0.2176
     13 C         -33.7250   24.8600   24.8150 C.3     1  UNL1        0.1261
     14 N         -35.1450   25.1030   25.2680 N.3     1  UNL1       -0.1301
     15 C         -32.7490   25.0700   26.1520 C.3     1  UNL1        0.0433
     16 C         -31.2040   24.8110   25.7260 C.3     1  UNL1        0.1230
     17 N         -30.2850   24.9970   26.8780 N.3     1  UNL1       -0.1302
     18 C         -30.8070   25.8400   24.4580 C.3     1  UNL1        0.1649
     19 C         -31.8020   25.6250   23.2200 C.3     1  UNL1        0.1779
     20 O         -31.3530   26.5900   22.1960 O.3     1  UNL1       -0.3258
     21 C         -33.2790   25.9000   23.6670 C.3     1  UNL1        0.1989
     22 O         -34.1320   25.6940   22.5450 O.3     1  UNL1       -0.2189
     23 C         -31.6910   26.3710   20.8140 C.3     1  UNL1        0.2694
     24 C         -32.6320   27.3090   20.1180 C.3     1  UNL1        0.2373
     25 O         -33.0940   26.7760   18.8600 O.3     1  UNL1       -0.2150
     26 C         -31.7850   28.5600   20.0950 C.3     1  UNL1        0.1827
     27 O         -32.2820   29.6980   19.5320 O.3     1  UNL1       -0.3265
     28 C         -30.4360   28.0910   19.5000 C.3     1  UNL1        0.1804
     29 O         -30.4830   26.6670   20.0340 O.3     1  UNL1       -0.3257
     30 C         -29.1120   28.8840   20.0560 C.3     1  UNL1        0.2141
     31 O         -29.1810   29.0970   21.4270 O.3     1  UNL1       -0.2176
     32 C         -33.3770   30.3490   20.1350 C.3     1  UNL1        0.2561
     33 C         -33.6940   31.6020   19.1890 C.3     1  UNL1        0.1807
     34 N         -32.4400   32.4310   19.0730 N.3     1  UNL1       -0.1248
     35 C         -34.9590   32.3620   19.8790 C.3     1  UNL1        0.2070
     36 O         -36.0660   31.4020   19.9020 O.3     1  UNL1       -0.2186
     37 C         -34.5600   32.8660   21.4350 C.3     1  UNL1        0.2122
     38 O         -33.4430   33.8340   21.4100 O.3     1  UNL1       -0.2177
     39 C         -34.1720   31.5200   22.3330 C.3     1  UNL1        0.1696
     40 O         -33.0260   30.8160   21.6010 O.3     1  UNL1       -0.3276
     41 C         -33.7690   31.9650   23.8020 C.3     1  UNL1        0.1415
     42 N         -33.1000   30.8910   24.4980 N.3     1  UNL1       -0.1286
@<TRIPOS>BOND
     1     1     2    1
     2     1     3    1
     3     1    10    1
     4     3     4    1
     5     3     5    1
     6     5     6    1
     7     5     7    1
     8     7     8    1
     9     7     9    1
    10     9    10    1
    11     9    11    1
    12    11    12    1
    13    13    14    1
    14    13    15    1
    15    13    21    1
    16    15    16    1
    17    16    17    1
    18    16    18    1
    19    18     2    1
    20    18    19    1
    21    19    20    1
    22    19    21    1
    23    21    22    1
    24    23    20    1
    25    23    24    1
    26    23    29    1
    27    24    25    1
    28    24    26    1
    29    26    27    1
    30    26    28    1
    31    28    29    1
    32    28    30    1
    33    30    31    1
    34    32    27    1
    35    32    33    1
    36    32    40    1
    37    33    34    1
    38    33    35    1
    39    35    36    1
    40    35    37    1
    41    37    38    1
    42    37    39    1
    43    39    40    1
    44    39    41    1
    45    41    42    1
