REMARK  9 active torsions:
REMARK  status: ('A' for Active; 'I' for Inactive)
REMARK    1  A    between atoms: C_1  and  O_2 
REMARK    2  A    between atoms: C_18  and  O_2 
REMARK    3  A    between atoms: C_9  and  C_11 
REMARK    4  A    between atoms: C_19  and  O_20 
REMARK    5  A    between atoms: C_23  and  O_20 
REMARK    6  A    between atoms: C_26  and  O_27 
REMARK    7  A    between atoms: C_32  and  O_27 
REMARK    8  A    between atoms: C_28  and  C_30 
REMARK    9  A    between atoms: C_39  and  C_41 
ROOT
ATOM      1  C   UNL d   1     -33.725  24.860  24.815  0.00  0.00     0.337 C 
ATOM      2  N   UNL d   1     -35.145  25.103  25.268  0.00  0.00     0.619 N 
ATOM      3  C   UNL d   1     -32.749  25.070  26.152  0.00  0.00     0.084 C 
ATOM      4  C   UNL d   1     -31.204  24.811  25.726  0.00  0.00     0.333 C 
ATOM      5  N   UNL d   1     -30.285  24.997  26.878  0.00  0.00     0.619 N 
ATOM      6  C   UNL d   1     -30.807  25.840  24.458  0.00  0.00     0.184 C 
ATOM      7  C   UNL d   1     -31.802  25.625  23.220  0.00  0.00     0.180 C 
ATOM      8  C   UNL d   1     -33.279  25.900  23.667  0.00  0.00     0.218 C 
ATOM      9  O   UNL d   1     -34.132  25.694  22.545  0.00  0.00    -0.218 OA
ENDROOT
BRANCH   7  10
ATOM     10  O   UNL d   1     -31.353  26.590  22.196  0.00  0.00    -0.326 OA
BRANCH  10  11
ATOM     11  C   UNL d   1     -31.691  26.371  20.814  0.00  0.00     0.270 C 
ATOM     12  C   UNL d   1     -32.632  27.309  20.118  0.00  0.00     0.238 C 
ATOM     13  O   UNL d   1     -33.094  26.776  18.860  0.00  0.00    -0.215 OA
ATOM     14  C   UNL d   1     -31.785  28.560  20.095  0.00  0.00     0.183 C 
ATOM     15  C   UNL d   1     -30.436  28.091  19.500  0.00  0.00     0.181 C 
ATOM     16  O   UNL d   1     -30.483  26.667  20.034  0.00  0.00    -0.326 OA
BRANCH  14  17
ATOM     17  O   UNL d   1     -32.282  29.698  19.532  0.00  0.00    -0.326 OA
BRANCH  17  18
ATOM     18  C   UNL d   1     -33.377  30.349  20.135  0.00  0.00     0.277 C 
ATOM     19  C   UNL d   1     -33.694  31.602  19.189  0.00  0.00     0.390 C 
ATOM     20  N   UNL d   1     -32.440  32.431  19.073  0.00  0.00     0.624 N 
ATOM     21  C   UNL d   1     -34.959  32.362  19.879  0.00  0.00     0.227 C 
ATOM     22  O   UNL d   1     -36.066  31.402  19.902  0.00  0.00    -0.218 OA
ATOM     23  C   UNL d   1     -34.560  32.866  21.435  0.00  0.00     0.214 C 
ATOM     24  O   UNL d   1     -33.443  33.834  21.410  0.00  0.00    -0.218 OA
ATOM     25  C   UNL d   1     -34.172  31.520  22.333  0.00  0.00     0.190 C 
ATOM     26  O   UNL d   1     -33.026  30.816  21.601  0.00  0.00    -0.327 OA
BRANCH  25  27
ATOM     27  C   UNL d   1     -33.769  31.965  23.802  0.00  0.00     0.370 C 
ATOM     28  N   UNL d   1     -33.100  30.891  24.498  0.00  0.00     0.621 N 
ENDBRANCH  25  27
ENDBRANCH  17  18
ENDBRANCH  14  17
BRANCH  15  29
ATOM     29  C   UNL d   1     -29.112  28.884  20.056  0.00  0.00     0.214 C 
ATOM     30  O   UNL d   1     -29.181  29.097  21.427  0.00  0.00    -0.218 OA
ENDBRANCH  15  29
ENDBRANCH  10  11
ENDBRANCH   7  10
BRANCH   6  31
ATOM     31  O   UNL d   1     -29.510  25.606  24.086  0.00  0.00    -0.327 OA
BRANCH  31  32
ATOM     32  C   UNL d   1     -28.655  26.589  24.068  0.00  0.00     0.277 C 
ATOM     33  C   UNL d   1     -27.580  26.489  22.891  0.00  0.00     0.390 C 
ATOM     34  N   UNL d   1     -28.213  26.331  21.641  0.00  0.00     0.624 N 
ATOM     35  C   UNL d   1     -26.557  25.313  23.171  0.00  0.00     0.227 C 
ATOM     36  O   UNL d   1     -25.634  25.307  22.103  0.00  0.00    -0.218 OA
ATOM     37  C   UNL d   1     -25.875  25.551  24.611  0.00  0.00     0.214 C 
ATOM     38  O   UNL d   1     -24.906  24.441  24.865  0.00  0.00    -0.218 OA
ATOM     39  C   UNL d   1     -27.032  25.555  25.761  0.00  0.00     0.184 C 
ATOM     40  O   UNL d   1     -27.934  26.711  25.386  0.00  0.00    -0.326 OA
BRANCH  39  41
ATOM     41  C   UNL d   1     -26.425  25.786  27.064  0.00  0.00     0.214 C 
ATOM     42  O   UNL d   1     -27.419  25.767  27.928  0.00  0.00    -0.218 OA
ENDBRANCH  39  41
ENDBRANCH  31  32
ENDBRANCH   6  31
TORSDOF 9
