3BNQ_PAR_C_101
 OpenBabel10091713573D
Coordinates from PDB:3BNQ:C:101 Model:1 without hydrogens
 42 45  0  0  0  0  0  0  0  0999 V2000
  -28.6550   26.5890   24.0680 C   0  0  2  0  0  0  0  0  0  0  0  0
  -29.5100   25.6060   24.0860 O   0  0  0  0  0  0  0  0  0  0  0  0
  -27.5800   26.4890   22.8910 C   0  0  2  0  0  0  0  0  0  0  0  0
  -28.2130   26.3310   21.6410 N   0  0  0  0  0  0  0  0  0  0  0  0
  -26.5570   25.3130   23.1710 C   0  0  1  0  0  0  0  0  0  0  0  0
  -25.6340   25.3070   22.1030 O   0  0  0  0  0  0  0  0  0  0  0  0
  -25.8750   25.5510   24.6110 C   0  0  2  0  0  0  0  0  0  0  0  0
  -24.9060   24.4410   24.8650 O   0  0  0  0  0  0  0  0  0  0  0  0
  -27.0320   25.5550   25.7610 C   0  0  2  0  0  0  0  0  0  0  0  0
  -27.9340   26.7110   25.3860 O   0  0  0  0  0  0  0  0  0  0  0  0
  -26.4250   25.7860   27.0640 C   0  0  0  0  0  0  0  0  0  0  0  0
  -27.4190   25.7670   27.9280 O   0  0  0  0  0  0  0  0  0  0  0  0
  -33.7250   24.8600   24.8150 C   0  0  2  0  0  0  0  0  0  0  0  0
  -35.1450   25.1030   25.2680 N   0  0  0  0  0  0  0  0  0  0  0  0
  -32.7490   25.0700   26.1520 C   0  0  0  0  0  0  0  0  0  0  0  0
  -31.2040   24.8110   25.7260 C   0  0  2  0  0  0  0  0  0  0  0  0
  -30.2850   24.9970   26.8780 N   0  0  0  0  0  0  0  0  0  0  0  0
  -30.8070   25.8400   24.4580 C   0  0  2  0  0  0  0  0  0  0  0  0
  -31.8020   25.6250   23.2200 C   0  0  2  0  0  0  0  0  0  0  0  0
  -31.3530   26.5900   22.1960 O   0  0  0  0  0  0  0  0  0  0  0  0
  -33.2790   25.9000   23.6670 C   0  0  1  0  0  0  0  0  0  0  0  0
  -34.1320   25.6940   22.5450 O   0  0  0  0  0  0  0  0  0  0  0  0
  -31.6910   26.3710   20.8140 C   0  0  1  0  0  0  0  0  0  0  0  0
  -32.6320   27.3090   20.1180 C   0  0  2  0  0  0  0  0  0  0  0  0
  -33.0940   26.7760   18.8600 O   0  0  0  0  0  0  0  0  0  0  0  0
  -31.7850   28.5600   20.0950 C   0  0  2  0  0  0  0  0  0  0  0  0
  -32.2820   29.6980   19.5320 O   0  0  0  0  0  0  0  0  0  0  0  0
  -30.4360   28.0910   19.5000 C   0  0  2  0  0  0  0  0  0  0  0  0
  -30.4830   26.6670   20.0340 O   0  0  0  0  0  0  0  0  0  0  0  0
  -29.1120   28.8840   20.0560 C   0  0  0  0  0  0  0  0  0  0  0  0
  -29.1810   29.0970   21.4270 O   0  0  0  0  0  0  0  0  0  0  0  0
  -33.3770   30.3490   20.1350 C   0  0  2  0  0  0  0  0  0  0  0  0
  -33.6940   31.6020   19.1890 C   0  0  2  0  0  0  0  0  0  0  0  0
  -32.4400   32.4310   19.0730 N   0  0  0  0  0  0  0  0  0  0  0  0
  -34.9590   32.3620   19.8790 C   0  0  1  0  0  0  0  0  0  0  0  0
  -36.0660   31.4020   19.9020 O   0  0  0  0  0  0  0  0  0  0  0  0
  -34.5600   32.8660   21.4350 C   0  0  2  0  0  0  0  0  0  0  0  0
  -33.4430   33.8340   21.4100 O   0  0  0  0  0  0  0  0  0  0  0  0
  -34.1720   31.5200   22.3330 C   0  0  1  0  0  0  0  0  0  0  0  0
  -33.0260   30.8160   21.6010 O   0  0  0  0  0  0  0  0  0  0  0  0
  -33.7690   31.9650   23.8020 C   0  0  0  0  0  0  0  0  0  0  0  0
  -33.1000   30.8910   24.4980 N   0  0  0  0  0  0  0  0  0  0  0  0
  1  2  1  1  0  0  0
  1  3  1  0  0  0  0
  1 10  1  0  0  0  0
  3  4  1  6  0  0  0
  3  5  1  0  0  0  0
  5  6  1  6  0  0  0
  5  7  1  0  0  0  0
  7  8  1  1  0  0  0
  7  9  1  0  0  0  0
  9 10  1  0  0  0  0
  9 11  1  1  0  0  0
 11 12  1  0  0  0  0
 13 14  1  1  0  0  0
 13 15  1  0  0  0  0
 13 21  1  0  0  0  0
 15 16  1  0  0  0  0
 16 17  1  1  0  0  0
 16 18  1  0  0  0  0
 18  2  1  6  0  0  0
 18 19  1  0  0  0  0
 19 20  1  6  0  0  0
 19 21  1  0  0  0  0
 21 22  1  6  0  0  0
 23 20  1  1  0  0  0
 23 24  1  0  0  0  0
 23 29  1  0  0  0  0
 24 25  1  6  0  0  0
 24 26  1  0  0  0  0
 26 27  1  6  0  0  0
 26 28  1  0  0  0  0
 28 29  1  0  0  0  0
 28 30  1  1  0  0  0
 30 31  1  0  0  0  0
 32 27  1  6  0  0  0
 32 33  1  0  0  0  0
 32 40  1  0  0  0  0
 33 34  1  1  0  0  0
 33 35  1  0  0  0  0
 35 36  1  1  0  0  0
 35 37  1  0  0  0  0
 37 38  1  6  0  0  0
 37 39  1  0  0  0  0
 39 40  1  0  0  0  0
 39 41  1  1  0  0  0
 41 42  1  0  0  0  0
A    1
C11
A    2
O11
A    3
C21
A    4
N21
A    5
C31
A    6
O31
A    7
C41
A    8
O41
A    9
C51
A   10
O51
A   11
C61
A   12
O61
A   13
C12
A   14
N12
A   15
C22
A   16
C32
A   17
N32
A   18
C42
A   19
C52
A   20
O52
A   21
C62
A   22
O62
A   23
C13
A   24
C23
A   25
O23
A   26
C33
A   27
O33
A   28
C43
A   29
O43
A   30
C53
A   31
O53
A   32
C14
A   33
C24
A   34
N24
A   35
C34
A   36
O34
A   37
C44
A   38
O44
A   39
C54
A   40
O54
A   41
C64
A   42
N64
M  END
>  <InstanceId>
3BNQ_PAR_C_101

>  <ChemCompId>
PAR

>  <PdbId>
3BNQ

>  <ChainId>
C

>  <ResidueNumber>
101

>  <InsertionCode>


>  <Model>
1

>  <AltIds>


>  <MissingHeavyAtoms>
0

>  <ObservedFormula>
C23 N5 O14

>  <Name>
PAROMOMYCIN

>  <SystematicName>
(2R,3S,4R,5R,6S)-5-amino-6-[(1R,2R,3S,4R,6S)-4,6-diamino-2-[(2S,3R,4S,5R)-4-[(2R,3R,4R,5S,6S)-3-amino-6-(aminomethyl)-4,5-dihydroxy-oxan-2-yl]oxy-3-hydroxy-5-(hydroxymethyl)oxolan-2-yl]oxy-3-hydroxy-cyclohexyl]oxy-2-(hydroxymethyl)oxane-3,4-diol

>  <Synonyms>
PAROMOMYCIN I, AMMINOSIDIN, CATENULIN, CRESTOMYCIN, MONOMYCIN A, NEOMYCIN E

>  <Type>
NON-POLYMER

>  <Formula>
C23 H45 N5 O14

>  <MolecularWeight>
615.628

>  <ModifiedDate>
2011-06-04

>  <Parent>


>  <OneLetterCode>


>  <SubcomponentList>


>  <AmbiguousFlag>
N

>  <InChI>
InChI=1S/C23H45N5O14/c24-2-7-13(32)15(34)10(27)21(37-7)41-19-9(4-30)39-23(17(19)36)42-20-12(31)5(25)1-6(26)18(20)40-22-11(28)16(35)14(33)8(3-29)38-22/h5-23,29-36H,1-4,24-28H2/t5-,6+,7+,8-,9-,10-,11-,12+,13-,14-,15-,16-,17-,18-,19-,20-,21-,22-,23+/m1/s1

>  <InChIKey>
UOZODPSAJZTQNH-LSWIJEOBSA-N

>  <SMILES>
C1[C@H]([C@@H]([C@H]([C@@H]([C@H]1N)O[C@@H]2[C@@H]([C@H]([C@@H]([C@H](O2)CO)O)O)N)O[C@H]3[C@@H]([C@@H]([C@H](O3)CO)O[C@@H]4[C@@H]([C@H]([C@@H]([C@@H](O4)CN)O)O)N)O)O)N

$$$$
