@<TRIPOS>MOLECULE
1P9X_TEL_0_2881
 123 127 0 0 0
SMALL
GASTEIGER

@<TRIPOS>ATOM
      1 C           0.0000    0.0000   -0.0000 C.3     1  UNL1       -0.0194
      2 C          -0.0000   -0.0000   -0.0000 C.3     1  UNL1        0.1678
      3 C          -0.0000   -0.0000    0.0000 C.3     1  UNL1        0.0814
      4 H          -0.0000   -0.0000   -0.0000 H       1  UNL1        0.0549
      5 N          -0.0000   -0.0000   -0.0000 N.am    1  UNL1       -0.2598
      6 C          -0.0000   -0.0000   -0.0000 C.2     1  UNL1        0.4039
      7 O          -0.0000   -0.0000   -0.0000 O.2     1  UNL1       -0.2262
      8 O          -0.0000   -0.0000   -0.0000 O.3     1  UNL1       -0.4383
      9 C          -0.0000   -0.0000   -0.0000 C.3     1  UNL1        0.0183
     10 C          -0.0000   -0.0000   -0.0000 C.3     1  UNL1       -0.0354
     11 C          -0.0000   -0.0000   -0.0000 C.3     1  UNL1       -0.0335
     12 C          -0.0000   -0.0000   -0.0000 C.3     1  UNL1        0.0242
     13 N          -0.0000   -0.0000   -0.0000 N.ar    1  UNL1       -0.3362
     14 C          -0.0000   -0.0000   -0.0000 C.ar    1  UNL1        0.0319
     15 C          -0.0000   -0.0000   -0.0000 C.ar    1  UNL1        0.0902
     16 N          -0.0000   -0.0000   -0.0000 N.ar    1  UNL1       -0.2357
     17 C          -0.0000   -0.0000   -0.0000 C.ar    1  UNL1        0.0966
     18 C          -0.0000   -0.0000   -0.0000 C.ar    1  UNL1        0.0199
     19 C          -0.0000   -0.0000   -0.0000 C.ar    1  UNL1       -0.0496
     20 C          -0.0000   -0.0000   -0.0000 C.ar    1  UNL1       -0.0430
     21 C          -0.0000   -0.0000   -0.0000 C.ar    1  UNL1        0.0276
     22 N          -0.0000   -0.0000   -0.0000 N.ar    1  UNL1       -0.2626
     23 C          -0.0000   -0.0000   -0.0000 C.ar    1  UNL1        0.0368
     24 C          -0.0000   -0.0000   -0.0000 C.3     1  UNL1        0.0375
     25 H          -0.0000   -0.0000    0.0000 H       1  UNL1        0.0394
     26 C          -0.0000   -0.0000    0.0000 C.3     1  UNL1       -0.0538
     27 C          -0.0000   -0.0000   -0.0000 C.2     1  UNL1        0.1409
     28 O          -0.0000   -0.0000   -0.0000 O.2     1  UNL1       -0.2968
     29 C          -0.0000   -0.0000   -0.0000 C.3     1  UNL1        0.0177
     30 H          -0.0000   -0.0000   -0.0000 H       1  UNL1        0.0376
     31 C          -0.0000   -0.0000    0.0000 C.3     1  UNL1       -0.0556
     32 C          -0.0000   -0.0000    0.0000 C.3     1  UNL1       -0.0123
     33 C          -0.0000   -0.0000    0.0000 C.3     1  UNL1        0.0937
     34 O          -0.0000   -0.0000   -0.0000 O.3     1  UNL1       -0.3742
     35 C          -0.0000   -0.0000    0.0000 C.3     1  UNL1        0.0373
     36 C          -0.0000   -0.0000    0.0000 C.3     1  UNL1       -0.0333
     37 C          -0.0000   -0.0000    0.0000 C.3     1  UNL1        0.0996
     38 H          -0.0000   -0.0000    0.0000 H       1  UNL1        0.0632
     39 C          -0.0000   -0.0000    0.0000 C.3     1  UNL1        0.0445
     40 H          -0.0000   -0.0000   -0.0000 H       1  UNL1        0.0401
     41 C          -0.0000   -0.0000   -0.0000 C.2     1  UNL1        0.1521
     42 O          -0.0000   -0.0000   -0.0000 O.2     1  UNL1       -0.2962
     43 C          -0.0000   -0.0000    0.0000 C.3     1  UNL1        0.1120
     44 H          -0.0000   -0.0000   -0.0000 H       1  UNL1        0.0489
     45 C          -0.0000   -0.0000   -0.0000 C.2     1  UNL1        0.3176
     46 O          -0.0000   -0.0000   -0.0000 O.2     1  UNL1       -0.2501
     47 O          -0.0000   -0.0000   -0.0000 O.3     1  UNL1       -0.4568
     48 C          -0.0000   -0.0000    0.0000 C.3     1  UNL1        0.1439
     49 H          -0.0000   -0.0000    0.0000 H       1  UNL1        0.0775
     50 C          -0.0000   -0.0000    0.0000 C.3     1  UNL1       -0.0146
     51 C          -0.0000   -0.0000    0.0000 C.3     1  UNL1       -0.0618
     52 C          -0.0000   -0.0000    0.0000 C.3     1  UNL1       -0.0454
     53 C          -0.0000   -0.0000    0.0000 C.3     1  UNL1       -0.0532
     54 O          -0.0000   -0.0000   -0.0000 O.3     1  UNL1       -0.3420
     55 C          -0.0000   -0.0000    0.0000 C.3     1  UNL1        0.1871
     56 H          -0.0000   -0.0000    0.0000 H       1  UNL1        0.0937
     57 C          -0.0000   -0.0000    0.0000 C.3     1  UNL1        0.1214
     58 H          -0.0000   -0.0000    0.0000 H       1  UNL1        0.0660
     59 O          -0.0000   -0.0000    0.0000 O.3     1  UNL1       -0.3852
     60 C          -0.0000   -0.0000    0.0000 C.3     1  UNL1        0.0429
     61 H          -0.0000   -0.0000    0.0000 H       1  UNL1        0.0490
     62 N          -0.0000   -0.0000    0.0000 N.3     1  UNL1       -0.3027
     63 C          -0.0000   -0.0000    0.0000 C.3     1  UNL1       -0.0127
     64 C          -0.0000   -0.0000    0.0000 C.3     1  UNL1       -0.0127
     65 C          -0.0000   -0.0000    0.0000 C.3     1  UNL1       -0.0085
     66 C          -0.0000   -0.0000    0.0000 C.3     1  UNL1        0.0605
     67 H          -0.0000   -0.0000    0.0000 H       1  UNL1        0.0595
     68 O          -0.0000   -0.0000    0.0000 O.3     1  UNL1       -0.3457
     69 C          -0.0000   -0.0000    0.0000 C.3     1  UNL1       -0.0385
     70 H           0.0000    0.0000    0.0000 H       1  UNL1        0.0270
     71 H           0.0000    0.0000    0.0000 H       1  UNL1        0.0270
     72 H           0.0000    0.0000    0.0000 H       1  UNL1        0.0270
     73 H          -0.0000   -0.0000   -0.0000 H       1  UNL1        0.0466
     74 H          -0.0000   -0.0000   -0.0000 H       1  UNL1        0.0466
     75 H          -0.0000   -0.0000   -0.0000 H       1  UNL1        0.0281
     76 H          -0.0000   -0.0000   -0.0000 H       1  UNL1        0.0281
     77 H          -0.0000   -0.0000   -0.0000 H       1  UNL1        0.0283
     78 H          -0.0000   -0.0000   -0.0000 H       1  UNL1        0.0283
     79 H          -0.0000   -0.0000   -0.0000 H       1  UNL1        0.0492
     80 H          -0.0000   -0.0000   -0.0000 H       1  UNL1        0.0492
     81 H          -0.0000   -0.0000   -0.0000 H       1  UNL1        0.0831
     82 H          -0.0000   -0.0000   -0.0000 H       1  UNL1        0.1029
     83 H          -0.0000   -0.0000   -0.0000 H       1  UNL1        0.0625
     84 H          -0.0000   -0.0000   -0.0000 H       1  UNL1        0.0633
     85 H          -0.0000   -0.0000   -0.0000 H       1  UNL1        0.0829
     86 H          -0.0000   -0.0000   -0.0000 H       1  UNL1        0.0836
     87 H           0.0000    0.0000    0.0000 H       1  UNL1        0.0237
     88 H           0.0000    0.0000    0.0000 H       1  UNL1        0.0237
     89 H           0.0000    0.0000    0.0000 H       1  UNL1        0.0237
     90 H           0.0000    0.0000    0.0000 H       1  UNL1        0.0236
     91 H           0.0000    0.0000    0.0000 H       1  UNL1        0.0236
     92 H           0.0000    0.0000    0.0000 H       1  UNL1        0.0236
     93 H           0.0000    0.0000    0.0000 H       1  UNL1        0.0300
     94 H           0.0000    0.0000    0.0000 H       1  UNL1        0.0300
     95 H          -0.0000   -0.0000    0.0000 H       1  UNL1        0.0524
     96 H          -0.0000   -0.0000    0.0000 H       1  UNL1        0.0524
     97 H          -0.0000   -0.0000    0.0000 H       1  UNL1        0.0524
     98 H           0.0000    0.0000    0.0000 H       1  UNL1        0.0258
     99 H           0.0000    0.0000    0.0000 H       1  UNL1        0.0258
    100 H           0.0000    0.0000    0.0000 H       1  UNL1        0.0258
    101 H          -0.0000   -0.0000    0.0000 H       1  UNL1        0.0299
    102 H          -0.0000   -0.0000    0.0000 H       1  UNL1        0.0299
    103 H          -0.0000   -0.0000    0.0000 H       1  UNL1        0.0231
    104 H          -0.0000   -0.0000    0.0000 H       1  UNL1        0.0231
    105 H          -0.0000   -0.0000    0.0000 H       1  UNL1        0.0231
    106 H           0.0000    0.0000    0.0000 H       1  UNL1        0.0242
    107 H           0.0000    0.0000    0.0000 H       1  UNL1        0.0242
    108 H           0.0000    0.0000    0.0000 H       1  UNL1        0.0242
    109 H           0.0000    0.0000    0.0000 H       1  UNL1        0.0237
    110 H           0.0000    0.0000    0.0000 H       1  UNL1        0.0237
    111 H           0.0000    0.0000    0.0000 H       1  UNL1        0.0237
    112 H          -0.0000   -0.0000    0.0000 H       1  UNL1        0.2101
    113 H          -0.0000   -0.0000    0.0000 H       1  UNL1        0.0391
    114 H          -0.0000   -0.0000    0.0000 H       1  UNL1        0.0391
    115 H          -0.0000   -0.0000    0.0000 H       1  UNL1        0.0391
    116 H          -0.0000   -0.0000    0.0000 H       1  UNL1        0.0391
    117 H          -0.0000   -0.0000    0.0000 H       1  UNL1        0.0391
    118 H          -0.0000   -0.0000    0.0000 H       1  UNL1        0.0391
    119 H          -0.0000   -0.0000    0.0000 H       1  UNL1        0.0306
    120 H          -0.0000   -0.0000    0.0000 H       1  UNL1        0.0306
    121 H          -0.0000   -0.0000    0.0000 H       1  UNL1        0.0255
    122 H          -0.0000   -0.0000    0.0000 H       1  UNL1        0.0255
    123 H          -0.0000   -0.0000    0.0000 H       1  UNL1        0.0255
@<TRIPOS>BOND
     1     1     2    1
     2     1    70    1
     3     1    71    1
     4     1    72    1
     5     2     3    1
     6     2     8    1
     7     2    48    1
     8     3     4    1
     9     3     5    1
    10     3    24    1
    11     5     6   am
    12     5     9    1
    13     6     7    2
    14     6     8    1
    15     9    10    1
    16     9    73    1
    17     9    74    1
    18    10    11    1
    19    10    75    1
    20    10    76    1
    21    11    12    1
    22    11    77    1
    23    11    78    1
    24    12    13    1
    25    12    79    1
    26    12    80    1
    27    13    14   ar
    28    13    17   ar
    29    14    15   ar
    30    14    81    1
    31    15    16   ar
    32    15    18    1
    33    16    17   ar
    34    17    82    1
    35    18    19   ar
    36    18    23   ar
    37    19    20   ar
    38    19    83    1
    39    20    21   ar
    40    20    84    1
    41    21    22   ar
    42    21    85    1
    43    22    23   ar
    44    23    86    1
    45    24    27    1
    46    24    26    1
    47    24    25    1
    48    26    87    1
    49    26    88    1
    50    26    89    1
    51    27    28    2
    52    27    29    1
    53    29    30    1
    54    29    31    1
    55    29    32    1
    56    31    90    1
    57    31    91    1
    58    31    92    1
    59    32    33    1
    60    32    93    1
    61    32    94    1
    62    33    34    1
    63    33    36    1
    64    33    37    1
    65    34    35    1
    66    35    95    1
    67    35    96    1
    68    35    97    1
    69    36    98    1
    70    36    99    1
    71    36   100    1
    72    37    38    1
    73    37    39    1
    74    37    54    1
    75    39    41    1
    76    39    53    1
    77    39    40    1
    78    41    42    2
    79    41    43    1
    80    43    44    1
    81    43    45    1
    82    43    52    1
    83    45    46    2
    84    45    47    1
    85    47    48    1
    86    48    49    1
    87    48    50    1
    88    50    51    1
    89    50   101    1
    90    50   102    1
    91    51   103    1
    92    51   104    1
    93    51   105    1
    94    52   106    1
    95    52   107    1
    96    52   108    1
    97    53   109    1
    98    53   110    1
    99    53   111    1
   100    54    55    1
   101    55    56    1
   102    55    57    1
   103    55    68    1
   104    57    60    1
   105    57    59    1
   106    57    58    1
   107    59   112    1
   108    60    65    1
   109    60    62    1
   110    60    61    1
   111    62    63    1
   112    62    64    1
   113    63   113    1
   114    63   114    1
   115    63   115    1
   116    64   116    1
   117    64   117    1
   118    64   118    1
   119    65    66    1
   120    65   119    1
   121    65   120    1
   122    66    68    1
   123    66    69    1
   124    66    67    1
   125    69   121    1
   126    69   122    1
   127    69   123    1
