REMARK  Name = 1P9X_TEL_0_2881
REMARK  23 active torsions:
REMARK  status: ('A' for Active; 'I' for Inactive)
REMARK    1  A    between atoms: C_1  and  C_2
REMARK    2  A    between atoms: N_5  and  C_9
REMARK    3  A    between atoms: C_9  and  C_10
REMARK    4  A    between atoms: C_10  and  C_11
REMARK    5  A    between atoms: C_11  and  C_12
REMARK    6  A    between atoms: C_12  and  N_13
REMARK    7  A    between atoms: C_15  and  C_18
REMARK    8  A    between atoms: C_24  and  C_26
REMARK    9  A    between atoms: C_29  and  C_31
REMARK   10  A    between atoms: C_33  and  O_34
REMARK   11  A    between atoms: C_33  and  C_36
REMARK   12  A    between atoms: O_34  and  C_35
REMARK   13  A    between atoms: C_37  and  O_54
REMARK   14  A    between atoms: C_39  and  C_53
REMARK   15  A    between atoms: C_43  and  C_52
REMARK   16  A    between atoms: C_48  and  C_50
REMARK   17  A    between atoms: C_50  and  C_51
REMARK   18  A    between atoms: O_54  and  C_55
REMARK   19  A    between atoms: C_57  and  O_59
REMARK   20  A    between atoms: C_60  and  N_62
REMARK   21  A    between atoms: N_62  and  C_63
REMARK   22  A    between atoms: N_62  and  C_64
REMARK   23  A    between atoms: C_66  and  C_69
REMARK                            x       y       z     vdW  Elec       q    Type
REMARK                         _______ _______ _______ _____ _____    ______ ____
ROOT
ATOM      1  C   UNL     1       0.000   0.000   0.000  0.00  0.00    +0.062 C 
ATOM      2  C   UNL     1       0.000   0.000   0.000  0.00  0.00    +0.168 C 
ATOM      3  C   UNL     1       0.000   0.000   0.000  0.00  0.00    +0.221 C 
ATOM      4  O   UNL     1       0.000   0.000   0.000  0.00  0.00    -0.457 OA
ATOM      5  C   UNL     1       0.000   0.000   0.000  0.00  0.00    +0.318 C 
ATOM      6  O   UNL     1       0.000   0.000   0.000  0.00  0.00    -0.250 OA
ATOM      7  C   UNL     1       0.000   0.000   0.000  0.00  0.00    +0.161 C 
ATOM      8  C   UNL     1       0.000   0.000   0.000  0.00  0.00    +0.027 C 
ATOM      9  C   UNL     1       0.000   0.000   0.000  0.00  0.00    +0.152 C 
ATOM     10  O   UNL     1       0.000   0.000   0.000  0.00  0.00    -0.296 OA
ATOM     11  C   UNL     1       0.000   0.000   0.000  0.00  0.00    +0.085 C 
ATOM     12  C   UNL     1       0.000   0.000   0.000  0.00  0.00    +0.018 C 
ATOM     13  C   UNL     1       0.000   0.000   0.000  0.00  0.00    +0.163 C 
ATOM     14  C   UNL     1       0.000   0.000   0.000  0.00  0.00    +0.094 C 
ATOM     15  C   UNL     1       0.000   0.000   0.000  0.00  0.00    +0.044 C 
ATOM     16  C   UNL     1       0.000   0.000   0.000  0.00  0.00    +0.048 C 
ATOM     17  C   UNL     1       0.000   0.000   0.000  0.00  0.00    +0.055 C 
ATOM     18  C   UNL     1       0.000   0.000   0.000  0.00  0.00    +0.015 C 
ATOM     19  C   UNL     1       0.000   0.000   0.000  0.00  0.00    +0.141 C 
ATOM     20  O   UNL     1       0.000   0.000   0.000  0.00  0.00    -0.297 OA
ATOM     21  C   UNL     1       0.000   0.000   0.000  0.00  0.00    +0.077 C 
ATOM     22  C   UNL     1       0.000   0.000   0.000  0.00  0.00    +0.017 C 
ATOM     23  O   UNL     1       0.000   0.000   0.000  0.00  0.00    -0.438 OA
ATOM     24  C   UNL     1       0.000   0.000   0.000  0.00  0.00    +0.404 C 
ATOM     25  O   UNL     1       0.000   0.000   0.000  0.00  0.00    -0.226 OA
ATOM     26  N   UNL     1       0.000   0.000   0.000  0.00  0.00    -0.260 N 
ATOM     27  C   UNL     1       0.000   0.000   0.000  0.00  0.00    +0.136 C 
ENDROOT
BRANCH   3  28
ATOM     28  C   UNL     1       0.000   0.000   0.000  0.00  0.00    +0.045 C 
ATOM     29  C   UNL     1       0.000   0.000   0.000  0.00  0.00    +0.007 C 
ENDBRANCH   3  28
BRANCH  14  30
ATOM     30  O   UNL     1       0.000   0.000   0.000  0.00  0.00    -0.374 OA
ATOM     31  C   UNL     1       0.000   0.000   0.000  0.00  0.00    +0.194 C 
ENDBRANCH  14  30
BRANCH  13  32
ATOM     32  O   UNL     1       0.000   0.000   0.000  0.00  0.00    -0.342 OA
BRANCH  32  33
ATOM     33  C   UNL     1       0.000   0.000   0.000  0.00  0.00    +0.281 C 
ATOM     34  O   UNL     1       0.000   0.000   0.000  0.00  0.00    -0.346 OA
ATOM     35  C   UNL     1       0.000   0.000   0.000  0.00  0.00    +0.120 C 
ATOM     36  C   UNL     1       0.000   0.000   0.000  0.00  0.00    +0.038 C 
ATOM     37  C   UNL     1       0.000   0.000   0.000  0.00  0.00    +0.053 C 
ATOM     38  C   UNL     1       0.000   0.000   0.000  0.00  0.00    +0.092 C 
ATOM     39  C   UNL     1       0.000   0.000   0.000  0.00  0.00    +0.187 C 
BRANCH  38  40
ATOM     40  N   UNL     1       0.000   0.000   0.000  0.00  0.00    -0.303 NA
ATOM     41  C   UNL     1       0.000   0.000   0.000  0.00  0.00    +0.105 C 
ATOM     42  C   UNL     1       0.000   0.000   0.000  0.00  0.00    +0.105 C 
ENDBRANCH  38  40
BRANCH  39  43
ATOM     43  O   UNL     1       0.000   0.000   0.000  0.00  0.00    -0.385 OA
ATOM     44  H   UNL     1       0.000   0.000   0.000  0.00  0.00    +0.210 HD
ENDBRANCH  39  43
ENDBRANCH  32  33
ENDBRANCH  13  32
BRANCH  26  45
ATOM     45  C   UNL     1       0.000   0.000   0.000  0.00  0.00    +0.111 C 
BRANCH  45  46
ATOM     46  C   UNL     1       0.000   0.000   0.000  0.00  0.00    +0.021 C 
BRANCH  46  47
ATOM     47  C   UNL     1       0.000   0.000   0.000  0.00  0.00    +0.023 C 
BRANCH  47  48
ATOM     48  C   UNL     1       0.000   0.000   0.000  0.00  0.00    +0.123 C 
BRANCH  48  49
ATOM     49  N   UNL     1       0.000   0.000   0.000  0.00  0.00    -0.336 N 
ATOM     50  C   UNL     1       0.000   0.000   0.000  0.00  0.00    +0.199 A 
ATOM     51  N   UNL     1       0.000   0.000   0.000  0.00  0.00    -0.236 NA
ATOM     52  C   UNL     1       0.000   0.000   0.000  0.00  0.00    +0.090 A 
ATOM     53  C   UNL     1       0.000   0.000   0.000  0.00  0.00    +0.115 A 
BRANCH  52  54
ATOM     54  C   UNL     1       0.000   0.000   0.000  0.00  0.00    +0.020 A 
ATOM     55  C   UNL     1       0.000   0.000   0.000  0.00  0.00    +0.120 A 
ATOM     56  N   UNL     1       0.000   0.000   0.000  0.00  0.00    -0.263 NA
ATOM     57  C   UNL     1       0.000   0.000   0.000  0.00  0.00    +0.111 A 
ATOM     58  C   UNL     1       0.000   0.000   0.000  0.00  0.00    +0.020 A 
ATOM     59  C   UNL     1       0.000   0.000   0.000  0.00  0.00    +0.013 A 
ENDBRANCH  52  54
ENDBRANCH  48  49
ENDBRANCH  47  48
ENDBRANCH  46  47
ENDBRANCH  45  46
ENDBRANCH  26  45
TORSDOF 12
