2KTZ_ISH_A_39
 OpenBabel10091713583D
Coordinates from PDB:2KTZ:A:39 Model:1 without hydrogens
 50 52  0  0  0  0  0  0  0  0999 V2000
    8.9640   -5.8570    3.2440 C   0  0  0  0  0  0  0  0  0  0  0  0
    7.8060   -6.4320    2.7170 C   0  0  0  0  0  0  0  0  0  0  0  0
    6.5650   -5.9600    3.1530 C   0  0  0  0  0  0  0  0  0  0  0  0
    6.4570   -4.9360    4.0600 C   0  0  0  0  0  0  0  0  0  0  0  0
    7.6070   -4.4010    4.6390 C   0  0  0  0  0  0  0  0  0  0  0  0
    8.8330   -4.8620    4.2120 C   0  0  0  0  0  0  0  0  0  0  0  0
    5.3690   -6.4670    2.8590 N   0  0  0  0  0  0  0  0  0  0  0  0
    4.5220   -5.7310    3.6050 C   0  0  0  0  0  0  0  0  0  0  0  0
    5.1550   -4.7170    4.3220 N   0  0  0  0  0  0  0  0  0  0  0  0
    7.8030   -3.4990    5.8330 C   0  0  0  0  0  0  0  0  0  0  0  0
    9.3320   -3.6100    6.0900 C   0  0  1  0  0  0  0  0  0  0  0  0
    9.8580   -4.3220    4.9320 O   0  0  0  0  0  0  0  0  0  0  0  0
    4.5730   -3.5000    4.9220 C   0  0  0  0  0  0  0  0  0  0  0  0
   10.0970   -2.2770    6.2500 C   0  0  0  0  0  0  0  0  0  0  0  0
    3.3550   -2.9030    4.1740 C   0  0  0  0  0  0  0  0  0  0  0  0
    0.6050   -1.3980    4.9040 C   0  0  0  0  0  0  0  0  0  0  0  0
    1.7950    0.5580    4.0170 C   0  0  0  0  0  0  0  0  0  0  0  0
    3.0730   -1.4560    4.6390 C   0  0  0  0  0  0  0  0  0  0  0  0
   11.5420   -3.0690    8.1520 C   0  0  0  0  0  0  0  0  0  0  0  0
   12.3710   -3.1950    5.8010 C   0  0  0  0  0  0  0  0  0  0  0  0
    3.1220   -6.0960    3.5330 N   0  0  0  0  0  0  0  0  0  0  0  0
    1.7710   -0.9530    4.0490 N   0  0  0  0  0  0  0  0  0  0  0  0
   11.5220   -2.4570    6.7740 N   0  0  0  0  0  0  0  0  0  0  0  0
    9.8966   -6.1618    2.9241 H   0  0  0  0  0  0  0  0  0  0  0  0
    7.8653   -7.1903    2.0195 H   0  0  0  0  0  0  0  0  0  0  0  0
    7.2429   -3.8460    6.6760 H   0  0  0  0  0  0  0  0  0  0  0  0
    7.4694   -2.4956    5.6693 H   0  0  0  0  0  0  0  0  0  0  0  0
    9.4723   -4.0997    7.0310 H   0  0  0  0  0  0  0  0  0  0  0  0
    5.3373   -2.7520    4.9566 H   0  0  0  0  0  0  0  0  0  0  0  0
    4.2108   -3.7925    5.8854 H   0  0  0  0  0  0  0  0  0  0  0  0
    9.5587   -1.6567    6.9358 H   0  0  0  0  0  0  0  0  0  0  0  0
   10.1700   -1.8347    5.2784 H   0  0  0  0  0  0  0  0  0  0  0  0
    2.4939   -3.5073    4.3696 H   0  0  0  0  0  0  0  0  0  0  0  0
    3.5727   -2.8877    3.1265 H   0  0  0  0  0  0  0  0  0  0  0  0
   -0.3078   -1.0373    4.4779 H   0  0  0  0  0  0  0  0  0  0  0  0
    0.7171   -1.0045    5.8927 H   0  0  0  0  0  0  0  0  0  0  0  0
    0.5811   -2.4669    4.9461 H   0  0  0  0  0  0  0  0  0  0  0  0
    0.8781    0.9205    3.6013 H   0  0  0  0  0  0  0  0  0  0  0  0
    2.6152    0.8890    3.4148 H   0  0  0  0  0  0  0  0  0  0  0  0
    1.9087    0.9341    5.0123 H   0  0  0  0  0  0  0  0  0  0  0  0
    3.8729   -0.8213    4.3193 H   0  0  0  0  0  0  0  0  0  0  0  0
    2.9966   -1.4442    5.7062 H   0  0  0  0  0  0  0  0  0  0  0  0
   10.9160   -2.4976    8.8051 H   0  0  0  0  0  0  0  0  0  0  0  0
   12.5438   -3.0689    8.5278 H   0  0  0  0  0  0  0  0  0  0  0  0
   11.1803   -4.0747    8.1009 H   0  0  0  0  0  0  0  0  0  0  0  0
   12.3170   -2.7163    4.8456 H   0  0  0  0  0  0  0  0  0  0  0  0
   12.0216   -4.2027    5.7153 H   0  0  0  0  0  0  0  0  0  0  0  0
   13.3852   -3.1969    6.1422 H   0  0  0  0  0  0  0  0  0  0  0  0
    2.8386   -6.8515    2.9689 H   0  0  0  0  0  0  0  0  0  0  0  0
    2.4539   -5.5886    4.0482 H   0  0  0  0  0  0  0  0  0  0  0  0
  1  6  1  0  0  0  0
  1 24  1  0  0  0  0
  2  1  2  0  0  0  0
  2  3  1  0  0  0  0
  2 25  1  0  0  0  0
  3  4  2  0  0  0  0
  4  9  1  0  0  0  0
  4  5  1  0  0  0  0
  5 10  1  0  0  0  0
  6  5  2  0  0  0  0
  6 12  1  0  0  0  0
  7  3  1  0  0  0  0
  7  8  2  0  0  0  0
  8  9  1  0  0  0  0
  9 13  1  0  0  0  0
 10 11  1  0  0  0  0
 10 26  1  0  0  0  0
 10 27  1  0  0  0  0
 11 14  1  0  0  0  0
 11 28  1  1  0  0  0
 12 11  1  0  0  0  0
 13 29  1  0  0  0  0
 13 30  1  0  0  0  0
 14 23  1  0  0  0  0
 14 31  1  0  0  0  0
 14 32  1  0  0  0  0
 15 13  1  0  0  0  0
 15 18  1  0  0  0  0
 15 33  1  0  0  0  0
 15 34  1  0  0  0  0
 16 35  1  0  0  0  0
 16 36  1  0  0  0  0
 16 37  1  0  0  0  0
 17 22  1  0  0  0  0
 17 38  1  0  0  0  0
 17 39  1  0  0  0  0
 17 40  1  0  0  0  0
 18 41  1  0  0  0  0
 18 42  1  0  0  0  0
 19 23  1  0  0  0  0
 19 43  1  0  0  0  0
 19 44  1  0  0  0  0
 19 45  1  0  0  0  0
 20 46  1  0  0  0  0
 20 47  1  0  0  0  0
 20 48  1  0  0  0  0
 21  8  1  0  0  0  0
 21 49  1  0  0  0  0
 21 50  1  0  0  0  0
 22 16  1  0  0  0  0
 22 18  1  0  0  0  0
 23 20  1  0  0  0  0
A    1
C1
A    2
C2
A    3
C3
A    4
C4
A    5
C5
A    6
C6
A    7
N7
A    8
C8
A    9
N9
A   10
C10
A   11
C11
A   12
O12
A   13
CA1
A   14
CA2
A   15
CB1
A   16
CD1
A   17
CE1
A   18
CG1
A   19
CG2
A   20
CG3
A   21
NP1
A   22
NP2
A   23
NP3
M  END
>  <InstanceId>
2KTZ_ISH_A_39

>  <ChemCompId>
ISH

>  <PdbId>
2KTZ

>  <ChainId>
A

>  <ResidueNumber>
39

>  <InsertionCode>


>  <Model>
1

>  <AltIds>


>  <MissingHeavyAtoms>
0

>  <ObservedFormula>
C17 N5 O

>  <Name>
(7R)-7-[(dimethylamino)methyl]-1-[3-(dimethylamino)propyl]-7,8-dihydro-1H-furo[3,2-e]benzimidazol-2-amine

>  <SystematicName>
(7R)-7-(dimethylaminomethyl)-1-[3-(dimethylamino)propyl]-7,8-dihydrofuro[3,2-e]benzimidazol-2-amine

>  <Synonyms>


>  <Type>
NON-POLYMER

>  <Formula>
C17 H27 N5 O

>  <MolecularWeight>
317.429

>  <ModifiedDate>
2011-06-04

>  <Parent>


>  <OneLetterCode>


>  <SubcomponentList>


>  <AmbiguousFlag>
N

>  <InChI>
InChI=1S/C17H27N5O/c1-20(2)8-5-9-22-16-13-10-12(11-21(3)4)23-15(13)7-6-14(16)19-17(22)18/h6-7,12H,5,8-11H2,1-4H3,(H2,18,19)/t12-/m1/s1

>  <InChIKey>
PFHMRNGLRJXGSW-GFCCVEGCSA-N

>  <SMILES>
CN(C)CCCn1c2c(ccc3c2C[C@@H](O3)CN(C)C)nc1N

$$$$
