@<TRIPOS>MOLECULE
2KTZ_ISH_A_39
 23 25 0 0 0
SMALL
GASTEIGER
****
Coordinates from PDB:2KTZ:A:39 Model:1 without hydrogens
@<TRIPOS>ATOM
      1 C           8.9640   -5.8570    3.2440 C.ar    1  UNL1        0.0382
      2 C           7.8060   -6.4320    2.7170 C.ar    1  UNL1        0.0238
      3 C           6.5650   -5.9600    3.1530 C.ar    1  UNL1        0.0999
      4 C           6.4570   -4.9360    4.0600 C.ar    1  UNL1        0.0789
      5 C           7.6070   -4.4010    4.6390 C.ar    1  UNL1        0.0327
      6 C           8.8330   -4.8620    4.2120 C.ar    1  UNL1        0.1360
      7 N           5.3690   -6.4670    2.8590 N.ar    1  UNL1       -0.2111
      8 C           4.5220   -5.7310    3.6050 C.ar    1  UNL1        0.2379
      9 N           5.1550   -4.7170    4.3220 N.ar    1  UNL1       -0.2973
     10 C           7.8030   -3.4990    5.8330 C.3     1  UNL1        0.0759
     11 C           9.3320   -3.6100    6.0900 C.3     1  UNL1        0.1862
     12 O           9.8580   -4.3220    4.9320 O.3     1  UNL1       -0.4777
     13 C           4.5730   -3.5000    4.9220 C.3     1  UNL1        0.1102
     14 C          10.0970   -2.2770    6.2500 C.3     1  UNL1        0.1166
     15 C           3.3550   -2.9030    4.1740 C.3     1  UNL1        0.0419
     16 C           0.6050   -1.3980    4.9040 C.3     1  UNL1        0.0897
     17 C           1.7950    0.5580    4.0170 C.3     1  UNL1        0.0897
     18 C           3.0730   -1.4560    4.6390 C.3     1  UNL1        0.0742
     19 C          11.5420   -3.0690    8.1520 C.3     1  UNL1        0.0898
     20 C          12.3710   -3.1950    5.8010 C.3     1  UNL1        0.0898
     21 N           3.1220   -6.0960    3.5330 N.pl3   1  UNL1       -0.0878
     22 N           1.7710   -0.9530    4.0490 N.3     1  UNL1       -0.2703
     23 N          11.5220   -2.4570    6.7740 N.3     1  UNL1       -0.2673
@<TRIPOS>BOND
     1     1     6   ar
     2     2     1   ar
     3     2     3   ar
     4     3     4   ar
     5     4     9   ar
     6     4     5   ar
     7     5    10    1
     8     6     5   ar
     9     6    12    1
    10     7     3   ar
    11     7     8   ar
    12     8     9   ar
    13     9    13    1
    14    10    11    1
    15    11    14    1
    16    12    11    1
    17    14    23    1
    18    15    13    1
    19    15    18    1
    20    17    22    1
    21    19    23    1
    22    21     8    1
    23    22    16    1
    24    22    18    1
    25    23    20    1
