2KTZ_ISH_A_39
 OpenBabel10091713583D
Coordinates from PDB:2KTZ:A:39 Model:1 without hydrogens
 23 25  0  0  0  0  0  0  0  0999 V2000
    8.9640   -5.8570    3.2440 C   0  0  0  0  0  0  0  0  0  0  0  0
    7.8060   -6.4320    2.7170 C   0  0  0  0  0  0  0  0  0  0  0  0
    6.5650   -5.9600    3.1530 C   0  0  0  0  0  0  0  0  0  0  0  0
    6.4570   -4.9360    4.0600 C   0  0  0  0  0  0  0  0  0  0  0  0
    7.6070   -4.4010    4.6390 C   0  0  0  0  0  0  0  0  0  0  0  0
    8.8330   -4.8620    4.2120 C   0  0  0  0  0  0  0  0  0  0  0  0
    5.3690   -6.4670    2.8590 N   0  0  0  0  0  0  0  0  0  0  0  0
    4.5220   -5.7310    3.6050 C   0  0  0  0  0  0  0  0  0  0  0  0
    5.1550   -4.7170    4.3220 N   0  0  0  0  0  0  0  0  0  0  0  0
    7.8030   -3.4990    5.8330 C   0  0  0  0  0  0  0  0  0  0  0  0
    9.3320   -3.6100    6.0900 C   0  0  1  0  0  0  0  0  0  0  0  0
    9.8580   -4.3220    4.9320 O   0  0  0  0  0  0  0  0  0  0  0  0
    4.5730   -3.5000    4.9220 C   0  0  0  0  0  0  0  0  0  0  0  0
   10.0970   -2.2770    6.2500 C   0  0  0  0  0  0  0  0  0  0  0  0
    3.3550   -2.9030    4.1740 C   0  0  0  0  0  0  0  0  0  0  0  0
    0.6050   -1.3980    4.9040 C   0  0  0  0  0  0  0  0  0  0  0  0
    1.7950    0.5580    4.0170 C   0  0  0  0  0  0  0  0  0  0  0  0
    3.0730   -1.4560    4.6390 C   0  0  0  0  0  0  0  0  0  0  0  0
   11.5420   -3.0690    8.1520 C   0  0  0  0  0  0  0  0  0  0  0  0
   12.3710   -3.1950    5.8010 C   0  0  0  0  0  0  0  0  0  0  0  0
    3.1220   -6.0960    3.5330 N   0  0  0  0  0  0  0  0  0  0  0  0
    1.7710   -0.9530    4.0490 N   0  0  0  0  0  0  0  0  0  0  0  0
   11.5220   -2.4570    6.7740 N   0  0  0  0  0  0  0  0  0  0  0  0
  1  6  1  0  0  0  0
  2  1  2  0  0  0  0
  2  3  1  0  0  0  0
  3  4  2  0  0  0  0
  4  9  1  0  0  0  0
  4  5  1  0  0  0  0
  5 10  1  0  0  0  0
  6  5  2  0  0  0  0
  6 12  1  0  0  0  0
  7  3  1  0  0  0  0
  7  8  2  0  0  0  0
  8  9  1  0  0  0  0
  9 13  1  0  0  0  0
 10 11  1  0  0  0  0
 11 14  1  6  0  0  0
 12 11  1  0  0  0  0
 14 23  1  0  0  0  0
 15 13  1  0  0  0  0
 15 18  1  0  0  0  0
 17 22  1  0  0  0  0
 19 23  1  0  0  0  0
 21  8  1  0  0  0  0
 22 16  1  0  0  0  0
 22 18  1  0  0  0  0
 23 20  1  0  0  0  0
A    1
C1
A    2
C2
A    3
C3
A    4
C4
A    5
C5
A    6
C6
A    7
N7
A    8
C8
A    9
N9
A   10
C10
A   11
C11
A   12
O12
A   13
CA1
A   14
CA2
A   15
CB1
A   16
CD1
A   17
CE1
A   18
CG1
A   19
CG2
A   20
CG3
A   21
NP1
A   22
NP2
A   23
NP3
M  END
>  <InstanceId>
2KTZ_ISH_A_39

>  <ChemCompId>
ISH

>  <PdbId>
2KTZ

>  <ChainId>
A

>  <ResidueNumber>
39

>  <InsertionCode>


>  <Model>
1

>  <AltIds>


>  <MissingHeavyAtoms>
0

>  <ObservedFormula>
C17 N5 O

>  <Name>
(7R)-7-[(dimethylamino)methyl]-1-[3-(dimethylamino)propyl]-7,8-dihydro-1H-furo[3,2-e]benzimidazol-2-amine

>  <SystematicName>
(7R)-7-(dimethylaminomethyl)-1-[3-(dimethylamino)propyl]-7,8-dihydrofuro[3,2-e]benzimidazol-2-amine

>  <Synonyms>


>  <Type>
NON-POLYMER

>  <Formula>
C17 H27 N5 O

>  <MolecularWeight>
317.429

>  <ModifiedDate>
2011-06-04

>  <Parent>


>  <OneLetterCode>


>  <SubcomponentList>


>  <AmbiguousFlag>
N

>  <InChI>
InChI=1S/C17H27N5O/c1-20(2)8-5-9-22-16-13-10-12(11-21(3)4)23-15(13)7-6-14(16)19-17(22)18/h6-7,12H,5,8-11H2,1-4H3,(H2,18,19)/t12-/m1/s1

>  <InChIKey>
PFHMRNGLRJXGSW-GFCCVEGCSA-N

>  <SMILES>
CN(C)CCCn1c2c(ccc3c2C[C@@H](O3)CN(C)C)nc1N

$$$$
