@<TRIPOS>MOLECULE
4LVW_7DG_A_101
 11 12 0 0 0
SMALL
GASTEIGER
****
Coordinates from PDB:4LVW:A:101 Model:1 without hydrogens
@<TRIPOS>ATOM
      1 N           2.8290  -21.2710   23.0180 N.2     1  UNL1       -0.2294
      2 C           4.0560  -20.7600   23.1800 C.2     1  UNL1        0.0791
      3 C           4.1290  -20.1520   24.4410 C.3     1  UNL1        0.0814
      4 C           2.8470  -20.3290   25.0520 C.ar    1  UNL1        0.0774
      5 C           2.2740  -19.9530   26.3010 C.ar    1  UNL1        0.2809
      6 O           3.0360  -19.2680   27.2210 O.2     1  UNL1       -0.2653
      7 N           0.9910  -20.2920   26.5740 N.ar    1  UNL1       -0.1725
      8 C           0.2690  -20.9640   25.6600 C.ar    1  UNL1        0.2606
      9 N          -1.0860  -21.3210   25.9320 N.pl3   1  UNL1       -0.0859
     10 N           0.7750  -21.3150   24.4740 N.ar    1  UNL1       -0.1921
     11 C           2.0750  -21.0180   24.1420 C.ar    1  UNL1        0.1659
@<TRIPOS>BOND
     1     1     2    2
     2     1    11    1
     3     2     3    1
     4     3     4    1
     5     4     5   ar
     6     4    11   ar
     7     5     6    2
     8     5     7   ar
     9     7     8   ar
    10     8     9    1
    11     8    10   ar
    12    10    11   ar
