temp2.pdb
 OpenBabel10091713583D

 18 19  0  0  1  0  0  0  0  0999 V2000
    2.8290  -21.2710   23.0180 N   0  0  0  0  0  0  0  0  0  0  0  0
    2.0750  -21.0180   24.1420 C   0  0  0  0  0  0  0  0  0  0  0  0
    0.7750  -21.3150   24.4740 N   0  0  0  0  0  0  0  0  0  0  0  0
    0.2690  -20.9640   25.6600 C   0  0  0  0  0  0  0  0  0  0  0  0
    0.9910  -20.2920   26.5740 N   0  0  0  0  0  0  0  0  0  0  0  0
    2.2740  -19.9530   26.3010 C   0  0  0  0  0  0  0  0  0  0  0  0
    3.0360  -19.2680   27.2210 O   0  0  0  0  0  0  0  0  0  0  0  0
   -1.0860  -21.3210   25.9320 N   0  0  0  0  0  0  0  0  0  0  0  0
    2.8470  -20.3290   25.0520 C   0  0  2  0  0  0  0  0  0  0  0  0
    4.1290  -20.1520   24.4410 C   0  0  0  0  0  0  0  0  0  0  0  0
    4.0560  -20.7600   23.1800 C   0  0  0  0  0  0  0  0  0  0  0  0
    0.0000    0.0000    0.0000 H   0  0  0  0  0  0  0  0  0  0  0  0
    0.0000    0.0000    0.0000 H   0  0  0  0  0  0  0  0  0  0  0  0
   -1.3040  -22.2328   26.2325 H   0  0  0  0  0  0  0  0  0  0  0  0
   -1.8026  -20.6554   25.8191 H   0  0  0  0  0  0  0  0  0  0  0  0
    3.1347  -19.8438   25.9612 H   0  0  0  0  0  0  0  0  0  0  0  0
    4.9463  -19.6714   24.8485 H   0  0  0  0  0  0  0  0  0  0  0  0
    4.8220  -20.8062   22.4900 H   0  0  0  0  0  0  0  0  0  0  0  0
  1 11  1  0  0  0  0
  1  2  2  0  0  0  0
  2  9  1  0  0  0  0
  2  3  2  0  0  0  0
  3  4  2  0  0  0  0
  3 12  1  0  0  0  0
  4  8  1  0  0  0  0
  4  5  2  0  0  0  0
  5  6  2  0  0  0  0
  5 13  1  0  0  0  0
  6  9  1  0  0  0  0
  6  7  2  0  0  0  0
  8 14  1  0  0  0  0
  8 15  1  0  0  0  0
  9 10  1  0  0  0  0
  9 16  1  1  0  0  0
 10 11  2  0  0  0  0
 10 17  1  0  0  0  0
 11 18  1  0  0  0  0
M  END
$$$$
