4LVW_7DG_A_101
 OpenBabel10091713583D
Coordinates from PDB:4LVW:A:101 Model:1 without hydrogens
 11 12  0  0  0  0  0  0  0  0999 V2000
    2.8290  -21.2710   23.0180 N   0  0  0  0  0  0  0  0  0  0  0  0
    4.0560  -20.7600   23.1800 C   0  0  0  0  0  0  0  0  0  0  0  0
    4.1290  -20.1520   24.4410 C   0  0  0  0  0  0  0  0  0  0  0  0
    2.8470  -20.3290   25.0520 C   0  0  0  0  0  0  0  0  0  0  0  0
    2.2740  -19.9530   26.3010 C   0  0  0  0  0  0  0  0  0  0  0  0
    3.0360  -19.2680   27.2210 O   0  0  0  0  0  0  0  0  0  0  0  0
    0.9910  -20.2920   26.5740 N   0  0  0  0  0  0  0  0  0  0  0  0
    0.2690  -20.9640   25.6600 C   0  0  0  0  0  0  0  0  0  0  0  0
   -1.0860  -21.3210   25.9320 N   0  0  0  0  0  0  0  0  0  0  0  0
    0.7750  -21.3150   24.4740 N   0  0  0  0  0  0  0  0  0  0  0  0
    2.0750  -21.0180   24.1420 C   0  0  0  0  0  0  0  0  0  0  0  0
  1  2  2  0  0  0  0
  1 11  1  0  0  0  0
  2  3  1  0  0  0  0
  3  4  1  0  0  0  0
  4  5  1  0  0  0  0
  4 11  2  0  0  0  0
  5  6  2  0  0  0  0
  5  7  1  0  0  0  0
  7  8  1  0  0  0  0
  8  9  1  0  0  0  0
  8 10  2  0  0  0  0
 10 11  1  0  0  0  0
A    1
N9
A    2
C8
A    3
C7
A    4
C5
A    5
C6
A    6
O6
A    7
N1
A    8
C2
A    9
N2
A   10
N3
A   11
C4
M  END
>  <InstanceId>
4LVW_7DG_A_101

>  <ChemCompId>
7DG

>  <PdbId>
4LVW

>  <ChainId>
A

>  <ResidueNumber>
101

>  <InsertionCode>


>  <Model>
1

>  <AltIds>


>  <MissingHeavyAtoms>
0

>  <ObservedFormula>
C6 N4 O

>  <Name>
7-DEAZAGUANINE

>  <SystematicName>
2-amino-3,5-dihydropyrrolo[3,2-e]pyrimidin-4-one

>  <Synonyms>


>  <Type>
NON-POLYMER

>  <Formula>
C6 H6 N4 O

>  <MolecularWeight>
150.138

>  <ModifiedDate>
2011-06-04

>  <Parent>


>  <OneLetterCode>


>  <SubcomponentList>


>  <AmbiguousFlag>
N

>  <InChI>
InChI=1S/C6H6N4O/c7-6-9-4-3(1-2-8-4)5(11)10-6/h2H,1H2,(H3,7,9,10,11)

>  <InChIKey>
LOSIULRWFAEMFL-UHFFFAOYSA-N

>  <SMILES>
C1C=NC2=C1C(=O)NC(=N2)N

$$$$
