REMARK  9 active torsions:
REMARK  status: ('A' for Active; 'I' for Inactive)
REMARK    1  A    between atoms: C_1  and  O_2 
REMARK    2  A    between atoms: C_17  and  O_2 
REMARK    3  A    between atoms: C_9  and  C_11 
REMARK    4  A    between atoms: C_15  and  O_16 
REMARK    5  A    between atoms: C_21  and  O_16 
REMARK    6  A    between atoms: C_23  and  O_31 
REMARK    7  A    between atoms: C_24  and  C_26 
REMARK    8  A    between atoms: C_30  and  O_31 
REMARK    9  A    between atoms: C_32  and  C_34 
ROOT
ATOM      1  C   UNL d   1       3.427  95.489  12.682  0.00  0.00     0.337 C 
ATOM      2  N   UNL d   1       4.405  96.282  11.922  0.00  0.00     0.619 N 
ATOM      3  C   UNL d   1       2.801  94.410  11.795  0.00  0.00     0.218 C 
ATOM      4  C   UNL d   1       1.711  93.629  12.541  0.00  0.00     0.180 C 
ATOM      5  C   UNL d   1       2.206  93.109  13.886  0.00  0.00     0.184 C 
ATOM      6  C   UNL d   1       2.999  94.126  14.712  0.00  0.00     0.333 C 
ATOM      7  N   UNL d   1       3.622  93.406  15.832  0.00  0.00     0.619 N 
ATOM      8  C   UNL d   1       4.088  94.824  13.891  0.00  0.00     0.084 C 
ATOM      9  O   UNL d   1       2.264  95.053  10.636  0.00  0.00    -0.218 OA
ENDROOT
BRANCH   4  10
ATOM     10  O   UNL d   1       1.357  92.461  11.783  0.00  0.00    -0.326 OA
BRANCH  10  11
ATOM     11  C   UNL d   1       0.229  92.606  10.905  0.00  0.00     0.270 C 
ATOM     12  C   UNL d   1       0.258  91.437   9.919  0.00  0.00     0.238 C 
ATOM     13  O   UNL d   1       1.138  91.744   8.835  0.00  0.00    -0.215 OA
ATOM     14  C   UNL d   1      -1.188  91.502   9.436  0.00  0.00     0.183 C 
ATOM     15  C   UNL d   1      -1.913  91.670  10.762  0.00  0.00     0.181 C 
ATOM     16  O   UNL d   1      -1.041  92.480  11.577  0.00  0.00    -0.326 OA
BRANCH  14  17
ATOM     17  O   UNL d   1      -1.377  92.669   8.620  0.00  0.00    -0.326 OA
BRANCH  17  18
ATOM     18  C   UNL d   1      -2.232  92.345   7.513  0.00  0.00     0.277 C 
ATOM     19  C   UNL d   1      -2.136  93.446   6.452  0.00  0.00     0.390 C 
ATOM     20  C   UNL d   1      -3.117  93.172   5.307  0.00  0.00     0.227 C 
ATOM     21  N   UNL d   1      -2.493  94.731   7.072  0.00  0.00     0.624 N 
ATOM     22  C   UNL d   1      -4.525  92.960   5.870  0.00  0.00     0.214 C 
ATOM     23  O   UNL d   1      -2.709  92.015   4.570  0.00  0.00    -0.218 OA
ATOM     24  C   UNL d   1      -4.494  91.849   6.925  0.00  0.00     0.190 C 
ATOM     25  O   UNL d   1      -4.969  94.186   6.461  0.00  0.00    -0.218 OA
ATOM     26  O   UNL d   1      -3.584  92.203   7.983  0.00  0.00    -0.327 OA
BRANCH  24  27
ATOM     27  C   UNL d   1      -5.886  91.584   7.505  0.00  0.00     0.370 C 
ATOM     28  N   UNL d   1      -6.384  92.779   8.202  0.00  0.00     0.621 N 
ENDBRANCH  24  27
ENDBRANCH  17  18
ENDBRANCH  14  17
BRANCH  15  29
ATOM     29  C   UNL d   1      -2.152  90.288  11.381  0.00  0.00     0.214 C 
ATOM     30  O   UNL d   1      -3.002  90.391  12.527  0.00  0.00    -0.218 OA
ENDBRANCH  15  29
ENDBRANCH  10  11
ENDBRANCH   4  10
BRANCH   5  31
ATOM     31  O   UNL d   1       1.143  92.610  14.717  0.00  0.00    -0.327 OA
BRANCH  31  32
ATOM     32  C   UNL d   1       0.631  91.317  14.352  0.00  0.00     0.276 C 
ATOM     33  O   UNL d   1       1.397  90.238  14.926  0.00  0.00    -0.327 OA
ATOM     34  C   UNL d   1       1.491  90.250  16.359  0.00  0.00     0.190 C 
ATOM     35  C   UNL d   1       0.089  90.163  16.964  0.00  0.00     0.214 C 
ATOM     36  C   UNL d   1      -0.748  91.329  16.437  0.00  0.00     0.227 C 
ATOM     37  O   UNL d   1       0.210  90.274  18.382  0.00  0.00    -0.218 OA
ATOM     38  C   UNL d   1      -0.793  91.271  14.908  0.00  0.00     0.390 C 
ATOM     39  O   UNL d   1      -2.070  91.283  16.981  0.00  0.00    -0.218 OA
ATOM     40  N   UNL d   1      -1.536  92.431  14.397  0.00  0.00     0.624 N 
BRANCH  34  41
ATOM     41  C   UNL d   1       2.336  89.081  16.872  0.00  0.00     0.370 C 
ATOM     42  N   UNL d   1       3.718  89.174  16.378  0.00  0.00     0.621 N 
ENDBRANCH  34  41
ENDBRANCH  31  32
ENDBRANCH   5  31
TORSDOF 9
