2FCY_NMY_A_1001
 OpenBabel10091713573D
Coordinates from PDB:2FCY:A:1001 Model:1 without hydrogens
 88 91  0  0  1  0  0  0  0  0999 V2000
    0.6310   91.3170   14.3520 C   0  0  2  0  0  0  0  0  0  0  0  0
    1.1430   92.6100   14.7170 O   0  0  0  0  0  0  0  0  0  0  0  0
   -0.7930   91.2710   14.9080 C   0  0  2  0  0  0  0  0  0  0  0  0
   -1.5360   92.4310   14.3970 N   0  0  0  0  0  0  0  0  0  0  0  0
   -0.7480   91.3290   16.4370 C   0  0  1  0  0  0  0  0  0  0  0  0
   -2.0700   91.2830   16.9810 O   0  0  0  0  0  0  0  0  0  0  0  0
    0.0890   90.1630   16.9640 C   0  0  2  0  0  0  0  0  0  0  0  0
    0.2100   90.2740   18.3820 O   0  0  0  0  0  0  0  0  0  0  0  0
    1.4910   90.2500   16.3590 C   0  0  2  0  0  0  0  0  0  0  0  0
    1.3970   90.2380   14.9260 O   0  0  0  0  0  0  0  0  0  0  0  0
    2.3360   89.0810   16.8720 C   0  0  0  0  0  0  0  0  0  0  0  0
    3.4270   95.4890   12.6820 C   0  0  1  0  0  0  0  0  0  0  0  0
    4.4050   96.2820   11.9220 N   0  0  0  0  0  0  0  0  0  0  0  0
    2.8010   94.4100   11.7950 C   0  0  1  0  0  0  0  0  0  0  0  0
    1.7110   93.6290   12.5410 C   0  0  1  0  0  0  0  0  0  0  0  0
    1.3570   92.4610   11.7830 O   0  0  0  0  0  0  0  0  0  0  0  0
    2.2060   93.1090   13.8860 C   0  0  1  0  0  0  0  0  0  0  0  0
    2.9990   94.1260   14.7120 C   0  0  1  0  0  0  0  0  0  0  0  0
    3.6220   93.4060   15.8320 N   0  0  0  0  0  0  0  0  0  0  0  0
    4.0880   94.8240   13.8910 C   0  0  0  0  0  0  0  0  0  0  0  0
    0.2290   92.6060   10.9050 C   0  0  1  0  0  0  0  0  0  0  0  0
    0.2580   91.4370    9.9190 C   0  0  1  0  0  0  0  0  0  0  0  0
   -1.1880   91.5020    9.4360 C   0  0  1  0  0  0  0  0  0  0  0  0
   -1.9130   91.6700   10.7620 C   0  0  2  0  0  0  0  0  0  0  0  0
   -1.0410   92.4800   11.5770 O   0  0  0  0  0  0  0  0  0  0  0  0
   -2.1520   90.2880   11.3810 C   0  0  0  0  0  0  0  0  0  0  0  0
   -4.5250   92.9600    5.8700 C   0  0  1  0  0  0  0  0  0  0  0  0
   -3.1170   93.1720    5.3070 C   0  0  1  0  0  0  0  0  0  0  0  0
   -2.1360   93.4460    6.4520 C   0  0  2  0  0  0  0  0  0  0  0  0
   -2.2320   92.3450    7.5130 C   0  0  1  0  0  0  0  0  0  0  0  0
   -1.3770   92.6690    8.6200 O   0  0  0  0  0  0  0  0  0  0  0  0
   -4.4940   91.8490    6.9250 C   0  0  1  0  0  0  0  0  0  0  0  0
   -3.5840   92.2030    7.9830 O   0  0  0  0  0  0  0  0  0  0  0  0
   -5.8860   91.5840    7.5050 C   0  0  0  0  0  0  0  0  0  0  0  0
    3.7180   89.1740   16.3780 N   0  0  0  0  0  0  0  0  0  0  0  0
    1.1380   91.7440    8.8350 O   0  0  0  0  0  0  0  0  0  0  0  0
   -2.7090   92.0150    4.5700 O   0  0  0  0  0  0  0  0  0  0  0  0
   -4.9690   94.1860    6.4610 O   0  0  0  0  0  0  0  0  0  0  0  0
   -3.0020   90.3910   12.5270 O   0  0  0  0  0  0  0  0  0  0  0  0
    2.2640   95.0530   10.6360 O   0  0  0  0  0  0  0  0  0  0  0  0
   -6.3840   92.7790    8.2020 N   0  0  0  0  0  0  0  0  0  0  0  0
   -2.4930   94.7310    7.0720 N   0  0  0  0  0  0  0  0  0  0  0  0
    0.6769   91.1903   13.2905 H   0  0  0  0  0  0  0  0  0  0  0  0
   -1.2737   90.3647   14.6041 H   0  0  0  0  0  0  0  0  0  0  0  0
   -1.0706   93.2895   14.6915 H   0  0  0  0  0  0  0  0  0  0  0  0
   -2.4866   92.4156   14.7666 H   0  0  0  0  0  0  0  0  0  0  0  0
   -0.2980   92.2512   16.7403 H   0  0  0  0  0  0  0  0  0  0  0  0
   -2.4989   90.4535   16.7186 H   0  0  0  0  0  0  0  0  0  0  0  0
   -0.3795   89.2372   16.7028 H   0  0  0  0  0  0  0  0  0  0  0  0
    0.6357   91.1165   18.6052 H   0  0  0  0  0  0  0  0  0  0  0  0
    1.9649   91.1631   16.6533 H   0  0  0  0  0  0  0  0  0  0  0  0
    1.9044   88.1622   16.5337 H   0  0  0  0  0  0  0  0  0  0  0  0
    2.3528   89.1155   17.9413 H   0  0  0  0  0  0  0  0  0  0  0  0
    2.6626   96.1560   13.0220 H   0  0  0  0  0  0  0  0  0  0  0  0
    5.1486   95.6713   11.5837 H   0  0  0  0  0  0  0  0  0  0  0  0
    4.8036   97.0003   12.5266 H   0  0  0  0  0  0  0  0  0  0  0  0
    3.5480   93.6975   11.5134 H   0  0  0  0  0  0  0  0  0  0  0  0
    0.8896   94.3009   12.6780 H   0  0  0  0  0  0  0  0  0  0  0  0
    2.8646   92.3147   13.6027 H   0  0  0  0  0  0  0  0  0  0  0  0
    2.3276   94.8861   15.0531 H   0  0  0  0  0  0  0  0  0  0  0  0
    4.2531   92.6920   15.4682 H   0  0  0  0  0  0  0  0  0  0  0  0
    2.8972   92.9633   16.3968 H   0  0  0  0  0  0  0  0  0  0  0  0
    4.5739   95.5651   14.4907 H   0  0  0  0  0  0  0  0  0  0  0  0
    4.8180   94.1121   13.5666 H   0  0  0  0  0  0  0  0  0  0  0  0
    0.3070   93.5777   10.4639 H   0  0  0  0  0  0  0  0  0  0  0  0
    0.5810   90.4969   10.3149 H   0  0  0  0  0  0  0  0  0  0  0  0
   -1.5095   90.6678    8.8480 H   0  0  0  0  0  0  0  0  0  0  0  0
   -2.8709   92.1362   10.6619 H   0  0  0  0  0  0  0  0  0  0  0  0
   -1.2133   89.8674   11.6758 H   0  0  0  0  0  0  0  0  0  0  0  0
   -2.6259   89.6614   10.6546 H   0  0  0  0  0  0  0  0  0  0  0  0
   -5.1963   92.6723    5.0880 H   0  0  0  0  0  0  0  0  0  0  0  0
   -3.1232   94.0153    4.6484 H   0  0  0  0  0  0  0  0  0  0  0  0
   -1.1388   93.4710    6.0650 H   0  0  0  0  0  0  0  0  0  0  0  0
   -1.9241   91.4209    7.0702 H   0  0  0  0  0  0  0  0  0  0  0  0
   -4.1597   90.9520    6.4469 H   0  0  0  0  0  0  0  0  0  0  0  0
   -5.8311   90.7692    8.1964 H   0  0  0  0  0  0  0  0  0  0  0  0
   -6.5558   91.3423    6.7063 H   0  0  0  0  0  0  0  0  0  0  0  0
    3.7175   89.1423   15.3585 H   0  0  0  0  0  0  0  0  0  0  0  0
    4.2626   88.3922   16.7422 H   0  0  0  0  0  0  0  0  0  0  0  0
    0.8828   92.5933    8.4419 H   0  0  0  0  0  0  0  0  0  0  0  0
   -2.6998   91.2437    5.1581 H   0  0  0  0  0  0  0  0  0  0  0  0
   -4.3582   94.4434    7.1692 H   0  0  0  0  0  0  0  0  0  0  0  0
   -2.5808   90.9577   13.1921 H   0  0  0  0  0  0  0  0  0  0  0  0
    1.5891   95.6952   10.9061 H   0  0  0  0  0  0  0  0  0  0  0  0
   -5.7505   93.0161    8.9654 H   0  0  0  0  0  0  0  0  0  0  0  0
   -7.3135   92.5909    8.5775 H   0  0  0  0  0  0  0  0  0  0  0  0
   -3.4460   94.6815    7.4323 H   0  0  0  0  0  0  0  0  0  0  0  0
   -2.4310   95.4735    6.3754 H   0  0  0  0  0  0  0  0  0  0  0  0
  1 10  1  0  0  0  0
  1  2  1  0  0  0  0
  1  3  1  0  0  0  0
  1 43  1  6  0  0  0
  2 17  1  0  0  0  0
  3  4  1  0  0  0  0
  3  5  1  0  0  0  0
  3 44  1  6  0  0  0
  4 45  1  0  0  0  0
  4 46  1  0  0  0  0
  5  7  1  0  0  0  0
  5  6  1  0  0  0  0
  5 47  1  1  0  0  0
  6 48  1  0  0  0  0
  7  9  1  0  0  0  0
  7  8  1  0  0  0  0
  7 49  1  6  0  0  0
  8 50  1  0  0  0  0
  9 10  1  0  0  0  0
  9 11  1  0  0  0  0
  9 51  1  1  0  0  0
 11 35  1  0  0  0  0
 11 52  1  0  0  0  0
 11 53  1  0  0  0  0
 12 13  1  0  0  0  0
 12 14  1  0  0  0  0
 12 20  1  0  0  0  0
 12 54  1  1  0  0  0
 13 55  1  0  0  0  0
 13 56  1  0  0  0  0
 14 40  1  0  0  0  0
 14 15  1  0  0  0  0
 14 57  1  6  0  0  0
 15 16  1  0  0  0  0
 15 17  1  0  0  0  0
 15 58  1  1  0  0  0
 16 21  1  0  0  0  0
 17 18  1  0  0  0  0
 17 59  1  6  0  0  0
 18 20  1  0  0  0  0
 18 19  1  0  0  0  0
 18 60  1  1  0  0  0
 19 61  1  0  0  0  0
 19 62  1  0  0  0  0
 20 63  1  0  0  0  0
 20 64  1  0  0  0  0
 21 22  1  0  0  0  0
 21 25  1  0  0  0  0
 21 65  1  6  0  0  0
 22 36  1  0  0  0  0
 22 23  1  0  0  0  0
 22 66  1  1  0  0  0
 23 31  1  0  0  0  0
 23 24  1  0  0  0  0
 23 67  1  6  0  0  0
 24 25  1  0  0  0  0
 24 26  1  0  0  0  0
 24 68  1  6  0  0  0
 26 39  1  0  0  0  0
 26 69  1  0  0  0  0
 26 70  1  0  0  0  0
 27 28  1  0  0  0  0
 27 32  1  0  0  0  0
 27 38  1  0  0  0  0
 27 71  1  6  0  0  0
 28 29  1  0  0  0  0
 28 37  1  0  0  0  0
 28 72  1  6  0  0  0
 29 42  1  0  0  0  0
 29 30  1  0  0  0  0
 29 73  1  6  0  0  0
 30 33  1  0  0  0  0
 30 31  1  0  0  0  0
 30 74  1  6  0  0  0
 32 33  1  0  0  0  0
 32 34  1  0  0  0  0
 32 75  1  6  0  0  0
 34 41  1  0  0  0  0
 34 76  1  0  0  0  0
 34 77  1  0  0  0  0
 35 78  1  0  0  0  0
 35 79  1  0  0  0  0
 36 80  1  0  0  0  0
 37 81  1  0  0  0  0
 38 82  1  0  0  0  0
 39 83  1  0  0  0  0
 40 84  1  0  0  0  0
 41 85  1  0  0  0  0
 41 86  1  0  0  0  0
 42 87  1  0  0  0  0
 42 88  1  0  0  0  0
M  END
$$$$
