@<TRIPOS>MOLECULE
2FCY_NMY_A_1001
 42 45 0 0 0
SMALL
GASTEIGER
****
Coordinates from PDB:2FCY:A:1001 Model:1 without hydrogens
@<TRIPOS>ATOM
      1 C           0.6310   91.3170   14.3520 C.3     1  UNL1        0.2561
      2 O           1.1430   92.6100   14.7170 O.3     1  UNL1       -0.3278
      3 C          -0.7930   91.2710   14.9080 C.3     1  UNL1        0.1807
      4 N          -1.5360   92.4310   14.3970 N.3     1  UNL1       -0.1248
      5 C          -0.7480   91.3290   16.4370 C.3     1  UNL1        0.2070
      6 O          -2.0700   91.2830   16.9810 O.3     1  UNL1       -0.2186
      7 C           0.0890   90.1630   16.9640 C.3     1  UNL1        0.2122
      8 O           0.2100   90.2740   18.3820 O.3     1  UNL1       -0.2177
      9 C           1.4910   90.2500   16.3590 C.3     1  UNL1        0.1696
     10 O           1.3970   90.2380   14.9260 O.3     1  UNL1       -0.3276
     11 C           2.3360   89.0810   16.8720 C.3     1  UNL1        0.1415
     12 C           3.4270   95.4890   12.6820 C.3     1  UNL1        0.1261
     13 N           4.4050   96.2820   11.9220 N.3     1  UNL1       -0.1301
     14 C           2.8010   94.4100   11.7950 C.3     1  UNL1        0.1989
     15 C           1.7110   93.6290   12.5410 C.3     1  UNL1        0.1779
     16 O           1.3570   92.4610   11.7830 O.3     1  UNL1       -0.3258
     17 C           2.2060   93.1090   13.8860 C.3     1  UNL1        0.1649
     18 C           2.9990   94.1260   14.7120 C.3     1  UNL1        0.1230
     19 N           3.6220   93.4060   15.8320 N.3     1  UNL1       -0.1302
     20 C           4.0880   94.8240   13.8910 C.3     1  UNL1        0.0433
     21 C           0.2290   92.6060   10.9050 C.3     1  UNL1        0.2694
     22 C           0.2580   91.4370    9.9190 C.3     1  UNL1        0.2373
     23 C          -1.1880   91.5020    9.4360 C.3     1  UNL1        0.1827
     24 C          -1.9130   91.6700   10.7620 C.3     1  UNL1        0.1804
     25 O          -1.0410   92.4800   11.5770 O.3     1  UNL1       -0.3257
     26 C          -2.1520   90.2880   11.3810 C.3     1  UNL1        0.2141
     27 C          -4.5250   92.9600    5.8700 C.3     1  UNL1        0.2122
     28 C          -3.1170   93.1720    5.3070 C.3     1  UNL1        0.2070
     29 C          -2.1360   93.4460    6.4520 C.3     1  UNL1        0.1807
     30 C          -2.2320   92.3450    7.5130 C.3     1  UNL1        0.2561
     31 O          -1.3770   92.6690    8.6200 O.3     1  UNL1       -0.3265
     32 C          -4.4940   91.8490    6.9250 C.3     1  UNL1        0.1696
     33 O          -3.5840   92.2030    7.9830 O.3     1  UNL1       -0.3276
     34 C          -5.8860   91.5840    7.5050 C.3     1  UNL1        0.1415
     35 N           3.7180   89.1740   16.3780 N.3     1  UNL1       -0.1286
     36 O           1.1380   91.7440    8.8350 O.3     1  UNL1       -0.2150
     37 O          -2.7090   92.0150    4.5700 O.3     1  UNL1       -0.2186
     38 O          -4.9690   94.1860    6.4610 O.3     1  UNL1       -0.2177
     39 O          -3.0020   90.3910   12.5270 O.3     1  UNL1       -0.2176
     40 O           2.2640   95.0530   10.6360 O.3     1  UNL1       -0.2189
     41 N          -6.3840   92.7790    8.2020 N.3     1  UNL1       -0.1286
     42 N          -2.4930   94.7310    7.0720 N.3     1  UNL1       -0.1248
@<TRIPOS>BOND
     1     1    10    1
     2     1     2    1
     3     1     3    1
     4     3     4    1
     5     3     5    1
     6     5     7    1
     7     5     6    1
     8     7     9    1
     9     7     8    1
    10     9    10    1
    11     9    11    1
    12    11    35    1
    13    12    13    1
    14    12    14    1
    15    12    20    1
    16    14    40    1
    17    14    15    1
    18    15    16    1
    19    15    17    1
    20    17     2    1
    21    17    18    1
    22    18    20    1
    23    18    19    1
    24    21    16    1
    25    21    22    1
    26    21    25    1
    27    22    36    1
    28    22    23    1
    29    23    31    1
    30    23    24    1
    31    24    25    1
    32    24    26    1
    33    26    39    1
    34    27    28    1
    35    27    32    1
    36    27    38    1
    37    28    29    1
    38    28    37    1
    39    29    42    1
    40    29    30    1
    41    30    33    1
    42    30    31    1
    43    32    33    1
    44    32    34    1
    45    34    41    1
