2FCY_NMY_A_1001
 OpenBabel10091713573D
Coordinates from PDB:2FCY:A:1001 Model:1 without hydrogens
 42 45  0  0  0  0  0  0  0  0999 V2000
    0.6310   91.3170   14.3520 C   0  0  2  0  0  0  0  0  0  0  0  0
    1.1430   92.6100   14.7170 O   0  0  0  0  0  0  0  0  0  0  0  0
   -0.7930   91.2710   14.9080 C   0  0  2  0  0  0  0  0  0  0  0  0
   -1.5360   92.4310   14.3970 N   0  0  0  0  0  0  0  0  0  0  0  0
   -0.7480   91.3290   16.4370 C   0  0  1  0  0  0  0  0  0  0  0  0
   -2.0700   91.2830   16.9810 O   0  0  0  0  0  0  0  0  0  0  0  0
    0.0890   90.1630   16.9640 C   0  0  2  0  0  0  0  0  0  0  0  0
    0.2100   90.2740   18.3820 O   0  0  0  0  0  0  0  0  0  0  0  0
    1.4910   90.2500   16.3590 C   0  0  2  0  0  0  0  0  0  0  0  0
    1.3970   90.2380   14.9260 O   0  0  0  0  0  0  0  0  0  0  0  0
    2.3360   89.0810   16.8720 C   0  0  0  0  0  0  0  0  0  0  0  0
    3.4270   95.4890   12.6820 C   0  0  1  0  0  0  0  0  0  0  0  0
    4.4050   96.2820   11.9220 N   0  0  0  0  0  0  0  0  0  0  0  0
    2.8010   94.4100   11.7950 C   0  0  1  0  0  0  0  0  0  0  0  0
    1.7110   93.6290   12.5410 C   0  0  1  0  0  0  0  0  0  0  0  0
    1.3570   92.4610   11.7830 O   0  0  0  0  0  0  0  0  0  0  0  0
    2.2060   93.1090   13.8860 C   0  0  1  0  0  0  0  0  0  0  0  0
    2.9990   94.1260   14.7120 C   0  0  1  0  0  0  0  0  0  0  0  0
    3.6220   93.4060   15.8320 N   0  0  0  0  0  0  0  0  0  0  0  0
    4.0880   94.8240   13.8910 C   0  0  0  0  0  0  0  0  0  0  0  0
    0.2290   92.6060   10.9050 C   0  0  1  0  0  0  0  0  0  0  0  0
    0.2580   91.4370    9.9190 C   0  0  1  0  0  0  0  0  0  0  0  0
   -1.1880   91.5020    9.4360 C   0  0  1  0  0  0  0  0  0  0  0  0
   -1.9130   91.6700   10.7620 C   0  0  2  0  0  0  0  0  0  0  0  0
   -1.0410   92.4800   11.5770 O   0  0  0  0  0  0  0  0  0  0  0  0
   -2.1520   90.2880   11.3810 C   0  0  0  0  0  0  0  0  0  0  0  0
   -4.5250   92.9600    5.8700 C   0  0  1  0  0  0  0  0  0  0  0  0
   -3.1170   93.1720    5.3070 C   0  0  1  0  0  0  0  0  0  0  0  0
   -2.1360   93.4460    6.4520 C   0  0  2  0  0  0  0  0  0  0  0  0
   -2.2320   92.3450    7.5130 C   0  0  1  0  0  0  0  0  0  0  0  0
   -1.3770   92.6690    8.6200 O   0  0  0  0  0  0  0  0  0  0  0  0
   -4.4940   91.8490    6.9250 C   0  0  1  0  0  0  0  0  0  0  0  0
   -3.5840   92.2030    7.9830 O   0  0  0  0  0  0  0  0  0  0  0  0
   -5.8860   91.5840    7.5050 C   0  0  0  0  0  0  0  0  0  0  0  0
    3.7180   89.1740   16.3780 N   0  0  0  0  0  0  0  0  0  0  0  0
    1.1380   91.7440    8.8350 O   0  0  0  0  0  0  0  0  0  0  0  0
   -2.7090   92.0150    4.5700 O   0  0  0  0  0  0  0  0  0  0  0  0
   -4.9690   94.1860    6.4610 O   0  0  0  0  0  0  0  0  0  0  0  0
   -3.0020   90.3910   12.5270 O   0  0  0  0  0  0  0  0  0  0  0  0
    2.2640   95.0530   10.6360 O   0  0  0  0  0  0  0  0  0  0  0  0
   -6.3840   92.7790    8.2020 N   0  0  0  0  0  0  0  0  0  0  0  0
   -2.4930   94.7310    7.0720 N   0  0  0  0  0  0  0  0  0  0  0  0
  1 10  1  0  0  0  0
  1  2  1  1  0  0  0
  1  3  1  0  0  0  0
  3  4  1  6  0  0  0
  3  5  1  0  0  0  0
  5  7  1  0  0  0  0
  5  6  1  1  0  0  0
  7  9  1  0  0  0  0
  7  8  1  1  0  0  0
  9 10  1  0  0  0  0
  9 11  1  1  0  0  0
 11 35  1  0  0  0  0
 12 13  1  6  0  0  0
 12 14  1  0  0  0  0
 12 20  1  0  0  0  0
 14 40  1  6  0  0  0
 14 15  1  0  0  0  0
 15 16  1  6  0  0  0
 15 17  1  0  0  0  0
 17  2  1  1  0  0  0
 17 18  1  0  0  0  0
 18 20  1  0  0  0  0
 18 19  1  1  0  0  0
 21 16  1  1  0  0  0
 21 22  1  0  0  0  0
 21 25  1  0  0  0  0
 22 36  1  6  0  0  0
 22 23  1  0  0  0  0
 23 31  1  6  0  0  0
 23 24  1  0  0  0  0
 24 25  1  0  0  0  0
 24 26  1  1  0  0  0
 26 39  1  0  0  0  0
 27 28  1  0  0  0  0
 27 32  1  0  0  0  0
 27 38  1  1  0  0  0
 28 29  1  0  0  0  0
 28 37  1  1  0  0  0
 29 42  1  1  0  0  0
 29 30  1  0  0  0  0
 30 33  1  0  0  0  0
 30 31  1  1  0  0  0
 32 33  1  0  0  0  0
 32 34  1  1  0  0  0
 34 41  1  0  0  0  0
A    1
C1
A    2
O1
A    3
C2
A    4
N2
A    5
C3
A    6
O3
A    7
C4
A    8
O4
A    9
C5
A   10
O5
A   11
C6
A   12
C7
A   13
N7
A   14
C12
A   15
C11
A   16
O11
A   17
C10
A   18
C9
A   19
N9
A   20
C8
A   21
C13
A   22
C14
A   23
C15
A   24
C16
A   25
O16
A   26
C17
A   27
C21
A   28
C20
A   29
C19
A   30
C18
A   31
O18
A   32
C22
A   33
O22
A   34
C23
A   35
N6
A   36
O14
A   37
O20
A   38
O21
A   39
O17
A   40
O12
A   41
N19
A   42
N23
M  END
>  <InstanceId>
2FCY_NMY_A_1001

>  <ChemCompId>
NMY

>  <PdbId>
2FCY

>  <ChainId>
A

>  <ResidueNumber>
1001

>  <InsertionCode>


>  <Model>
1

>  <AltIds>


>  <MissingHeavyAtoms>
0

>  <ObservedFormula>
C23 N6 O13

>  <Name>
NEOMYCIN

>  <SystematicName>
(2R,3S,4R,5R,6R)-5-amino-2-(aminomethyl)-6-[(1R,2R,3S,4R,6S)-4,6-diamino-2-[(2S,3R,4S,5R)-4-[(2R,3R,4R,5S,6S)-3-amino-6-(aminomethyl)-4,5-dihydroxy-oxan-2-yl]oxy-3-hydroxy-5-(hydroxymethyl)oxolan-2-yl]oxy-3-hydroxy-cyclohexyl]oxy-oxane-3,4-diol

>  <Synonyms>
MYCIFRADIN; NEOMAS; PIMAVECORT; VONAMYCIN

>  <Type>
NON-POLYMER

>  <Formula>
C23 H46 N6 O13

>  <MolecularWeight>
614.644

>  <ModifiedDate>
2011-06-04

>  <Parent>


>  <OneLetterCode>


>  <SubcomponentList>


>  <AmbiguousFlag>


>  <InChI>
InChI=1S/C23H46N6O13/c24-2-7-13(32)15(34)10(28)21(37-7)40-18-6(27)1-5(26)12(31)20(18)42-23-17(36)19(9(4-30)39-23)41-22-11(29)16(35)14(33)8(3-25)38-22/h5-23,30-36H,1-4,24-29H2/t5-,6+,7-,8+,9-,10-,11-,12+,13-,14-,15-,16-,17-,18-,19-,20-,21-,22-,23+/m1/s1

>  <InChIKey>
PGBHMTALBVVCIT-VCIWKGPPSA-N

>  <SMILES>
C1[C@H]([C@@H]([C@H]([C@@H]([C@H]1N)O[C@@H]2[C@@H]([C@H]([C@@H]([C@H](O2)CN)O)O)N)O[C@H]3[C@@H]([C@@H]([C@H](O3)CO)O[C@@H]4[C@@H]([C@H]([C@@H]([C@@H](O4)CN)O)O)N)O)O)N

$$$$
