REMARK  4 active torsions:
REMARK  status: ('A' for Active; 'I' for Inactive)
REMARK    1  A    between atoms: P_1  and  O_5 
REMARK    2  A    between atoms: O_5  and  C_6 
REMARK    3  A    between atoms: C_7  and  C_6 
REMARK    4  A    between atoms: C_13  and  N_14 
ROOT
ATOM      1  C   UNL d   1       1.655  -9.966   5.046  0.00  0.00     0.181 C 
ATOM      2  O   UNL d   1       0.447  -9.289   4.680  0.00  0.00    -0.331 OA
ATOM      3  C   UNL d   1       2.042  -9.384   6.451  0.00  0.00     0.216 C 
ATOM      4  O   UNL d   1       3.397  -9.696   6.743  0.00  0.00    -0.218 OA
ATOM      5  C   UNL d   1       1.593  -7.943   6.269  0.00  0.00     0.234 C 
ATOM      6  O   UNL d   1       2.514  -7.275   5.416  0.00  0.00    -0.216 OA
ATOM      7  C   UNL d   1       0.219  -8.142   5.514  0.00  0.00     0.241 C 
ENDROOT
BRANCH   7   8
ATOM      8  N   UNL d   1      -1.043  -8.463   6.236  0.00  0.00    -0.270 N 
ATOM      9  C   UNL d   1      -1.497  -9.699   6.600  0.00  0.00     0.182 A 
ATOM     10  N   UNL d   1      -2.643  -9.714   7.205  0.00  0.00    -0.219 NA
ATOM     11  C   UNL d   1      -2.993  -8.373   7.252  0.00  0.00     0.155 A 
ATOM     12  C   UNL d   1      -4.115  -7.719   7.775  0.00  0.00     0.206 A 
ATOM     13  C   UNL d   1      -2.027  -7.598   6.665  0.00  0.00     0.170 A 
ATOM     14  N   UNL d   1      -5.103  -8.393   8.377  0.00  0.00    -0.125 N 
ATOM     15  N   UNL d   1      -4.151  -6.380   7.654  0.00  0.00    -0.202 NA
ATOM     16  C   UNL d   1      -3.142  -5.743   7.056  0.00  0.00     0.202 A 
ATOM     17  N   UNL d   1      -2.038  -6.259   6.532  0.00  0.00    -0.205 NA
ENDBRANCH   7   8
BRANCH   1  18
ATOM     18  C   UNL d   1       1.439 -11.472   4.878  0.00  0.00     0.188 C 
BRANCH  18  19
ATOM     19  O   UNL d   1       0.255 -11.949   5.538  0.00  0.00    -0.261 OA
BRANCH  19  20
ATOM     20  P   UNL d   1      -1.021 -12.468   4.685  0.00  0.00     0.423 P 
ATOM     21  O   UNL d   1      -1.444 -11.393   3.760  0.00  0.00    -0.617 OA
ATOM     22  O   UNL d   1      -0.717 -13.818   4.160  0.00  0.00    -0.617 OA
ATOM     23  O   UNL d   1      -2.156 -12.622   5.816  0.00  0.00    -0.617 OA
ENDBRANCH  19  20
ENDBRANCH  18  19
ENDBRANCH   1  18
TORSDOF 4
