1AM0_AMP_A_41
 OpenBabel10091713573D
Coordinates from PDB:1AM0:A:41 Model:1 without hydrogens
 37 39  0  0  1  0  0  0  0  0999 V2000
   -1.0210  -12.4680    4.6850 P   0  0  0  0  0  0  0  0  0  0  0  0
   -1.4440  -11.3930    3.7600 O   0  0  0  0  0  0  0  0  0  0  0  0
   -0.7170  -13.8180    4.1600 O   0  0  0  0  0  0  0  0  0  0  0  0
   -2.1560  -12.6220    5.8160 O   0  0  0  0  0  0  0  0  0  0  0  0
    0.2550  -11.9490    5.5380 O   0  0  0  0  0  0  0  0  0  0  0  0
    1.4390  -11.4720    4.8780 C   0  0  0  0  0  0  0  0  0  0  0  0
    1.6550   -9.9660    5.0460 C   0  0  1  0  0  0  0  0  0  0  0  0
    0.4470   -9.2890    4.6800 O   0  0  0  0  0  0  0  0  0  0  0  0
    2.0420   -9.3840    6.4510 C   0  0  1  0  0  0  0  0  0  0  0  0
    3.3970   -9.6960    6.7430 O   0  0  0  0  0  0  0  0  0  0  0  0
    1.5930   -7.9430    6.2690 C   0  0  1  0  0  0  0  0  0  0  0  0
    2.5140   -7.2750    5.4160 O   0  0  0  0  0  0  0  0  0  0  0  0
    0.2190   -8.1420    5.5140 C   0  0  2  0  0  0  0  0  0  0  0  0
   -1.0430   -8.4630    6.2360 N   0  0  0  0  0  0  0  0  0  0  0  0
   -1.4970   -9.6990    6.6000 C   0  0  0  0  0  0  0  0  0  0  0  0
   -2.6430   -9.7140    7.2050 N   0  0  0  0  0  0  0  0  0  0  0  0
   -2.9930   -8.3730    7.2520 C   0  0  0  0  0  0  0  0  0  0  0  0
   -4.1150   -7.7190    7.7750 C   0  0  0  0  0  0  0  0  0  0  0  0
   -5.1030   -8.3930    8.3770 N   0  0  0  0  0  0  0  0  0  0  0  0
   -4.1510   -6.3800    7.6540 N   0  0  0  0  0  0  0  0  0  0  0  0
   -3.1420   -5.7430    7.0560 C   0  0  0  0  0  0  0  0  0  0  0  0
   -2.0380   -6.2590    6.5320 N   0  0  0  0  0  0  0  0  0  0  0  0
   -2.0270   -7.5980    6.6650 C   0  0  0  0  0  0  0  0  0  0  0  0
   -1.4728  -14.1428    3.6461 H   0  0  0  0  0  0  0  0  0  0  0  0
   -2.9790  -12.9336    5.4079 H   0  0  0  0  0  0  0  0  0  0  0  0
    1.3578  -11.6899    3.8336 H   0  0  0  0  0  0  0  0  0  0  0  0
    2.2753  -11.9662    5.3267 H   0  0  0  0  0  0  0  0  0  0  0  0
    2.5138   -9.8026    4.4291 H   0  0  0  0  0  0  0  0  0  0  0  0
    1.5906   -9.7758    7.3385 H   0  0  0  0  0  0  0  0  0  0  0  0
    3.9620   -9.3975    6.0133 H   0  0  0  0  0  0  0  0  0  0  0  0
    1.5236   -7.3735    7.1722 H   0  0  0  0  0  0  0  0  0  0  0  0
    2.6004   -7.7674    4.5847 H   0  0  0  0  0  0  0  0  0  0  0  0
    0.0226   -7.1758    5.0984 H   0  0  0  0  0  0  0  0  0  0  0  0
   -0.9641  -10.5613    6.4065 H   0  0  0  0  0  0  0  0  0  0  0  0
   -5.0546   -9.3733    8.4537 H   0  0  0  0  0  0  0  0  0  0  0  0
   -5.8778   -7.9083    8.7429 H   0  0  0  0  0  0  0  0  0  0  0  0
   -3.2324   -4.7169    6.9932 H   0  0  0  0  0  0  0  0  0  0  0  0
  1  2  2  0  0  0  0
  1  3  1  0  0  0  0
  1  4  1  0  0  0  0
  1  5  1  0  0  0  0
  3 24  1  0  0  0  0
  4 25  1  0  0  0  0
  5  6  1  0  0  0  0
  6  7  1  0  0  0  0
  6 26  1  0  0  0  0
  6 27  1  0  0  0  0
  7  8  1  0  0  0  0
  7  9  1  0  0  0  0
  7 28  1  6  0  0  0
  8 13  1  0  0  0  0
  9 10  1  0  0  0  0
  9 11  1  0  0  0  0
  9 29  1  1  0  0  0
 10 30  1  0  0  0  0
 11 12  1  0  0  0  0
 11 13  1  0  0  0  0
 11 31  1  1  0  0  0
 12 32  1  0  0  0  0
 13 14  1  0  0  0  0
 13 33  1  6  0  0  0
 14 15  1  0  0  0  0
 14 23  1  0  0  0  0
 15 16  2  0  0  0  0
 15 34  1  0  0  0  0
 16 17  1  0  0  0  0
 17 18  2  0  0  0  0
 17 23  1  0  0  0  0
 18 19  1  0  0  0  0
 18 20  1  0  0  0  0
 19 35  1  0  0  0  0
 19 36  1  0  0  0  0
 20 21  2  0  0  0  0
 21 22  1  0  0  0  0
 21 37  1  0  0  0  0
 22 23  2  0  0  0  0
M  END
$$$$
