@<TRIPOS>MOLECULE
1AM0_AMP_A_41
 23 25 0 0 0
SMALL
GASTEIGER
****
Coordinates from PDB:1AM0:A:41 Model:1 without hydrogens
@<TRIPOS>ATOM
      1 P          -1.0210  -12.4680    4.6850 P.3     1  UNL1        0.5327
      2 O          -1.4440  -11.3930    3.7600 O.2     1  UNL1       -0.2224
      3 O          -0.7170  -13.8180    4.1600 O.3     1  UNL1       -0.1145
      4 O          -2.1560  -12.6220    5.8160 O.3     1  UNL1       -0.1145
      5 O           0.2550  -11.9490    5.5380 O.3     1  UNL1       -0.2675
      6 C           1.4390  -11.4720    4.8780 C.3     1  UNL1        0.1859
      7 C           1.6550   -9.9660    5.0460 C.3     1  UNL1        0.1803
      8 O           0.4470   -9.2890    4.6800 O.3     1  UNL1       -0.3306
      9 C           2.0420   -9.3840    6.4510 C.3     1  UNL1        0.2161
     10 O           3.3970   -9.6960    6.7430 O.3     1  UNL1       -0.2175
     11 C           1.5930   -7.9430    6.2690 C.3     1  UNL1        0.2337
     12 O           2.5140   -7.2750    5.4160 O.3     1  UNL1       -0.2155
     13 C           0.2190   -8.1420    5.5140 C.3     1  UNL1        0.2409
     14 N          -1.0430   -8.4630    6.2360 N.ar    1  UNL1       -0.2693
     15 C          -1.4970   -9.6990    6.6000 C.ar    1  UNL1        0.1816
     16 N          -2.6430   -9.7140    7.2050 N.ar    1  UNL1       -0.2193
     17 C          -2.9930   -8.3730    7.2520 C.ar    1  UNL1        0.1518
     18 C          -4.1150   -7.7190    7.7750 C.ar    1  UNL1        0.1919
     19 N          -5.1030   -8.3930    8.3770 N.pl3   1  UNL1       -0.1054
     20 N          -4.1510   -6.3800    7.6540 N.ar    1  UNL1       -0.2040
     21 C          -3.1420   -5.7430    7.0560 C.ar    1  UNL1        0.2016
     22 N          -2.0380   -6.2590    6.5320 N.ar    1  UNL1       -0.2048
     23 C          -2.0270   -7.5980    6.6650 C.ar    1  UNL1        0.1692
@<TRIPOS>BOND
     1     1     2    2
     2     1     3    1
     3     1     4    1
     4     1     5    1
     5     5     6    1
     6     7     6    1
     7     7     8    1
     8     7     9    1
     9     8    13    1
    10     9    10    1
    11     9    11    1
    12    11    12    1
    13    11    13    1
    14    13    14    1
    15    14    15   ar
    16    14    23   ar
    17    15    16   ar
    18    16    17   ar
    19    17    18   ar
    20    17    23   ar
    21    18    19    1
    22    18    20   ar
    23    20    21   ar
    24    21    22   ar
    25    22    23   ar
