1AM0_AMP_A_41
 OpenBabel10091713573D
Coordinates from PDB:1AM0:A:41 Model:1 without hydrogens
 23 25  0  0  0  0  0  0  0  0999 V2000
   -1.0210  -12.4680    4.6850 P   0  0  0  0  0  0  0  0  0  0  0  0
   -1.4440  -11.3930    3.7600 O   0  0  0  0  0  0  0  0  0  0  0  0
   -0.7170  -13.8180    4.1600 O   0  0  0  0  0  0  0  0  0  0  0  0
   -2.1560  -12.6220    5.8160 O   0  0  0  0  0  0  0  0  0  0  0  0
    0.2550  -11.9490    5.5380 O   0  0  0  0  0  0  0  0  0  0  0  0
    1.4390  -11.4720    4.8780 C   0  0  0  0  0  0  0  0  0  0  0  0
    1.6550   -9.9660    5.0460 C   0  0  1  0  0  0  0  0  0  0  0  0
    0.4470   -9.2890    4.6800 O   0  0  0  0  0  0  0  0  0  0  0  0
    2.0420   -9.3840    6.4510 C   0  0  1  0  0  0  0  0  0  0  0  0
    3.3970   -9.6960    6.7430 O   0  0  0  0  0  0  0  0  0  0  0  0
    1.5930   -7.9430    6.2690 C   0  0  1  0  0  0  0  0  0  0  0  0
    2.5140   -7.2750    5.4160 O   0  0  0  0  0  0  0  0  0  0  0  0
    0.2190   -8.1420    5.5140 C   0  0  2  0  0  0  0  0  0  0  0  0
   -1.0430   -8.4630    6.2360 N   0  0  0  0  0  0  0  0  0  0  0  0
   -1.4970   -9.6990    6.6000 C   0  0  0  0  0  0  0  0  0  0  0  0
   -2.6430   -9.7140    7.2050 N   0  0  0  0  0  0  0  0  0  0  0  0
   -2.9930   -8.3730    7.2520 C   0  0  0  0  0  0  0  0  0  0  0  0
   -4.1150   -7.7190    7.7750 C   0  0  0  0  0  0  0  0  0  0  0  0
   -5.1030   -8.3930    8.3770 N   0  0  0  0  0  0  0  0  0  0  0  0
   -4.1510   -6.3800    7.6540 N   0  0  0  0  0  0  0  0  0  0  0  0
   -3.1420   -5.7430    7.0560 C   0  0  0  0  0  0  0  0  0  0  0  0
   -2.0380   -6.2590    6.5320 N   0  0  0  0  0  0  0  0  0  0  0  0
   -2.0270   -7.5980    6.6650 C   0  0  0  0  0  0  0  0  0  0  0  0
  1  2  2  0  0  0  0
  1  3  1  0  0  0  0
  1  4  1  0  0  0  0
  1  5  1  0  0  0  0
  5  6  1  0  0  0  0
  7  6  1  1  0  0  0
  7  8  1  0  0  0  0
  7  9  1  0  0  0  0
  8 13  1  0  0  0  0
  9 10  1  6  0  0  0
  9 11  1  0  0  0  0
 11 12  1  6  0  0  0
 11 13  1  0  0  0  0
 13 14  1  1  0  0  0
 14 15  1  0  0  0  0
 14 23  1  0  0  0  0
 15 16  2  0  0  0  0
 16 17  1  0  0  0  0
 17 18  1  0  0  0  0
 17 23  2  0  0  0  0
 18 19  1  0  0  0  0
 18 20  2  0  0  0  0
 20 21  1  0  0  0  0
 21 22  2  0  0  0  0
 22 23  1  0  0  0  0
A    1
P
A    2
O1P
A    3
O2P
A    4
O3P
A    5
O5'
A    6
C5'
A    7
C4'
A    8
O4'
A    9
C3'
A   10
O3'
A   11
C2'
A   12
O2'
A   13
C1'
A   14
N9
A   15
C8
A   16
N7
A   17
C5
A   18
C6
A   19
N6
A   20
N1
A   21
C2
A   22
N3
A   23
C4
M  END
>  <InstanceId>
1AM0_AMP_A_41

>  <ChemCompId>
AMP

>  <PdbId>
1AM0

>  <ChainId>
A

>  <ResidueNumber>
41

>  <InsertionCode>


>  <Model>
1

>  <AltIds>


>  <MissingHeavyAtoms>
0

>  <ObservedFormula>
C10 N5 O7 P

>  <Name>
ADENOSINE MONOPHOSPHATE

>  <SystematicName>
[(2R,3S,4R,5R)-5-(6-aminopurin-9-yl)-3,4-bis(oxidanyl)oxolan-2-yl]methyl dihydrogen phosphate

>  <Synonyms>


>  <Type>
NON-POLYMER

>  <Formula>
C10 H14 N5 O7 P

>  <MolecularWeight>
347.221

>  <ModifiedDate>
2011-12-08

>  <Parent>


>  <OneLetterCode>


>  <SubcomponentList>


>  <AmbiguousFlag>
N

>  <InChI>
InChI=1S/C10H14N5O7P/c11-8-5-9(13-2-12-8)15(3-14-5)10-7(17)6(16)4(22-10)1-21-23(18,19)20/h2-4,6-7,10,16-17H,1H2,(H2,11,12,13)(H2,18,19,20)/t4-,6-,7-,10-/m1/s1

>  <InChIKey>
UDMBCSSLTHHNCD-KQYNXXCUSA-N

>  <SMILES>
c1nc(c2c(n1)n(cn2)[C@H]3[C@@H]([C@@H]([C@H](O3)COP(=O)(O)O)O)O)N

$$$$
