4YB0_C2E_R_102
 OpenBabel10281720503D
Coordinates from PDB:4YB0:R:102 Model:1 without hydrogens
 70 76  0  0  0  0  0  0  0  0999 V2000
  188.1090   24.7050  140.5030 P   0  0  1  0  0  0  0  0  0  0  0  0
  189.2940   24.7250  141.4520 O   0  0  0  0  0  0  0  0  0  0  0  0
  187.9560   23.5510  139.5370 O   0  0  0  0  0  0  0  0  0  0  0  0
  186.7570   24.8100  141.3780 O   0  0  0  0  0  0  0  0  0  0  0  0
  185.5560   24.3180  140.8000 C   0  0  0  0  0  0  0  0  0  0  0  0
  184.3130   24.8690  141.4740 C   0  0  1  0  0  0  0  0  0  0  0  0
  184.0940   24.0800  142.6410 O   0  0  0  0  0  0  0  0  0  0  0  0
  184.3690   26.3280  141.9080 C   0  0  1  0  0  0  0  0  0  0  0  0
  183.7020   27.1630  140.9580 O   0  0  0  0  0  0  0  0  0  0  0  0
  183.5780   26.3000  143.2020 C   0  0  1  0  0  0  0  0  0  0  0  0
  182.1920   26.4570  142.9100 O   0  0  0  0  0  0  0  0  0  0  0  0
  183.7170   24.8970  143.7390 C   0  0  2  0  0  0  0  0  0  0  0  0
  184.8100   24.7810  144.7370 N   0  0  0  0  0  0  0  0  0  0  0  0
  186.0110   24.2030  144.5240 C   0  0  0  0  0  0  0  0  0  0  0  0
  186.7730   24.2550  145.6550 N   0  0  0  0  0  0  0  0  0  0  0  0
  186.0480   24.8800  146.6190 C   0  0  0  0  0  0  0  0  0  0  0  0
  186.2340   25.2630  148.0560 C   0  0  0  0  0  0  0  0  0  0  0  0
  187.3010   25.0130  148.6730 O   0  0  0  0  0  0  0  0  0  0  0  0
  185.2190   25.8950  148.6640 N   0  0  0  0  0  0  0  0  0  0  0  0
  184.0660   26.1740  148.0330 C   0  0  0  0  0  0  0  0  0  0  0  0
  183.0870   26.8040  148.6990 N   0  0  0  0  0  0  0  0  0  0  0  0
  183.8280   25.8530  146.7420 N   0  0  0  0  0  0  0  0  0  0  0  0
  184.7610   25.2200  145.9990 C   0  0  0  0  0  0  0  0  0  0  0  0
  183.9500   28.7690  140.8840 P   0  0  1  0  0  0  0  0  0  0  0  0
  183.2910   29.3900  139.6790 O   0  0  0  0  0  0  0  0  0  0  0  0
  183.5900   29.3070  142.2500 O   0  0  0  0  0  0  0  0  0  0  0  0
  185.5460   28.8270  140.6710 O   0  0  0  0  0  0  0  0  0  0  0  0
  186.1100   28.8770  139.3620 C   0  0  0  0  0  0  0  0  0  0  0  0
  187.5830   28.4570  139.3090 C   0  0  1  0  0  0  0  0  0  0  0  0
  188.4360   29.5850  139.5830 O   0  0  0  0  0  0  0  0  0  0  0  0
  188.0120   27.3650  140.2700 C   0  0  1  0  0  0  0  0  0  0  0  0
  188.0570   26.0790  139.6500 O   0  0  0  0  0  0  0  0  0  0  0  0
  189.4210   27.7690  140.6420 C   0  0  1  0  0  0  0  0  0  0  0  0
  190.2640   27.2310  139.6250 O   0  0  0  0  0  0  0  0  0  0  0  0
  189.4580   29.2790  140.5410 C   0  0  2  0  0  0  0  0  0  0  0  0
  189.0910   29.8920  141.8520 N   0  0  0  0  0  0  0  0  0  0  0  0
  188.0310   30.6950  142.0660 C   0  0  0  0  0  0  0  0  0  0  0  0
  187.9530   31.0850  143.3640 N   0  0  0  0  0  0  0  0  0  0  0  0
  188.9810   30.5180  144.0130 C   0  0  0  0  0  0  0  0  0  0  0  0
  189.4880   30.5190  145.4060 C   0  0  0  0  0  0  0  0  0  0  0  0
  188.8970   31.1660  146.3040 O   0  0  0  0  0  0  0  0  0  0  0  0
  190.5860   29.8050  145.6680 N   0  0  0  0  0  0  0  0  0  0  0  0
  191.2310   29.0990  144.7120 C   0  0  0  0  0  0  0  0  0  0  0  0
  192.3370   28.3920  145.0540 N   0  0  0  0  0  0  0  0  0  0  0  0
  190.8200   29.0570  143.4190 N   0  0  0  0  0  0  0  0  0  0  0  0
  189.7250   29.7390  143.0160 C   0  0  0  0  0  0  0  0  0  0  0  0
  189.3167   23.8980  141.9584 H   0  0  0  0  0  0  0  0  0  0  0  0
  185.5471   23.2514  140.8849 H   0  0  0  0  0  0  0  0  0  0  0  0
  185.5363   24.6338  139.7779 H   0  0  0  0  0  0  0  0  0  0  0  0
  183.5337   24.8232  140.7422 H   0  0  0  0  0  0  0  0  0  0  0  0
  185.3644   26.7091  142.0015 H   0  0  0  0  0  0  0  0  0  0  0  0
  183.9197   27.0627  143.8702 H   0  0  0  0  0  0  0  0  0  0  0  0
  181.9077   25.7550  142.3039 H   0  0  0  0  0  0  0  0  0  0  0  0
  182.7943   24.6167  144.2027 H   0  0  0  0  0  0  0  0  0  0  0  0
  186.3109   23.7810  143.6313 H   0  0  0  0  0  0  0  0  0  0  0  0
  185.3225   26.1638  149.6054 H   0  0  0  0  0  0  0  0  0  0  0  0
  183.2166   27.0570  149.6416 H   0  0  0  0  0  0  0  0  0  0  0  0
  182.2388   27.0135  148.2453 H   0  0  0  0  0  0  0  0  0  0  0  0
  183.6105   28.9525  138.8744 H   0  0  0  0  0  0  0  0  0  0  0  0
  186.0316   29.8803  138.9986 H   0  0  0  0  0  0  0  0  0  0  0  0
  185.5646   28.1807  138.7599 H   0  0  0  0  0  0  0  0  0  0  0  0
  187.6824   28.0676  138.3173 H   0  0  0  0  0  0  0  0  0  0  0  0
  187.3319   27.2782  141.0915 H   0  0  0  0  0  0  0  0  0  0  0  0
  189.7205   27.4346  141.6133 H   0  0  0  0  0  0  0  0  0  0  0  0
  189.9691   27.5507  138.7580 H   0  0  0  0  0  0  0  0  0  0  0  0
  190.4253   29.6465  140.2688 H   0  0  0  0  0  0  0  0  0  0  0  0
  187.3611   30.9786  141.3340 H   0  0  0  0  0  0  0  0  0  0  0  0
  190.9373   29.7923  146.5876 H   0  0  0  0  0  0  0  0  0  0  0  0
  192.6599   28.4026  145.9840 H   0  0  0  0  0  0  0  0  0  0  0  0
  192.8168   27.8683  144.3722 H   0  0  0  0  0  0  0  0  0  0  0  0
  1  2  1  0  0  0  0
  1  3  2  6  0  0  0
  2 47  1  0  0  0  0
  4  1  1  0  0  0  0
  5  4  1  0  0  0  0
  5 48  1  0  0  0  0
  5 49  1  0  0  0  0
  6  7  1  0  0  0  0
  6  5  1  0  0  0  0
  6 50  1  6  0  0  0
  8  6  1  0  0  0  0
  8  9  1  0  0  0  0
  8 51  1  1  0  0  0
  9 24  1  0  0  0  0
 10  8  1  0  0  0  0
 10 12  1  0  0  0  0
 10 11  1  0  0  0  0
 10 52  1  1  0  0  0
 11 53  1  0  0  0  0
 12  7  1  0  0  0  0
 12 13  1  0  0  0  0
 12 54  1  1  0  0  0
 13 23  1  0  0  0  0
 13 14  1  0  0  0  0
 14 15  2  0  0  0  0
 14 55  1  0  0  0  0
 16 15  1  0  0  0  0
 16 17  1  0  0  0  0
 17 18  2  0  0  0  0
 19 17  1  0  0  0  0
 19 56  1  0  0  0  0
 20 19  1  0  0  0  0
 21 20  1  0  0  0  0
 21 57  1  0  0  0  0
 21 58  1  0  0  0  0
 22 20  2  0  0  0  0
 22 23  1  0  0  0  0
 23 16  2  0  0  0  0
 24 25  1  0  0  0  0
 24 27  1  0  0  0  0
 24 26  2  1  0  0  0
 25 59  1  0  0  0  0
 28 27  1  0  0  0  0
 28 60  1  0  0  0  0
 28 61  1  0  0  0  0
 29 28  1  0  0  0  0
 29 30  1  0  0  0  0
 29 31  1  0  0  0  0
 29 62  1  6  0  0  0
 30 35  1  0  0  0  0
 31 33  1  0  0  0  0
 31 32  1  0  0  0  0
 31 63  1  1  0  0  0
 32  1  1  0  0  0  0
 33 34  1  0  0  0  0
 33 64  1  1  0  0  0
 34 65  1  0  0  0  0
 35 33  1  0  0  0  0
 35 36  1  0  0  0  0
 35 66  1  6  0  0  0
 36 46  1  0  0  0  0
 37 38  2  0  0  0  0
 37 36  1  0  0  0  0
 37 67  1  0  0  0  0
 38 39  1  0  0  0  0
 39 46  2  0  0  0  0
 39 40  1  0  0  0  0
 40 41  2  0  0  0  0
 40 42  1  0  0  0  0
 42 68  1  0  0  0  0
 43 42  1  0  0  0  0
 43 44  1  0  0  0  0
 44 69  1  0  0  0  0
 44 70  1  0  0  0  0
 45 43  2  0  0  0  0
 46 45  1  0  0  0  0
A    1
P1
A    2
O2P
A    3
O1P
A    4
O5'
A    5
C5'
A    6
C4'
A    7
O4'
A    8
C3'
A    9
O3'
A   10
C2'
A   11
O2'
A   12
C1'
A   13
N9
A   14
C8
A   15
N7
A   16
C5
A   17
C6
A   18
O6
A   19
N1
A   20
C2
A   21
N2
A   22
N3
A   23
C4
A   24
P11
A   25
O21
A   26
O11
A   27
O5A
A   28
C5A
A   29
C4A
A   30
O4A
A   31
C3A
A   32
O3A
A   33
C2A
A   34
O2A
A   35
C1A
A   36
N91
A   37
C81
A   38
N71
A   39
C51
A   40
C61
A   41
O61
A   42
N11
A   43
C21
A   44
N21
A   45
N31
A   46
C41
M  END
>  <InstanceId>
4YB0_C2E_R_102

>  <ChemCompId>
C2E

>  <PdbId>
4YB0

>  <ChainId>
R

>  <ResidueNumber>
102

>  <InsertionCode>


>  <Model>
1

>  <AltIds>


>  <MissingHeavyAtoms>
0

>  <ObservedFormula>
C20 N10 O14 P2

>  <Name>
9,9'-[(2R,3R,3aS,5S,7aR,9R,10R,10aS,12S,14aR)-3,5,10,12-tetrahydroxy-5,12-dioxidooctahydro-2H,7H-difuro[3,2-d:3',2'-j][1,3,7,9,2,8]tetraoxadiphosphacyclododecine-2,9-diyl]bis(2-amino-1,9-dihydro-6H-purin-6-one)

>  <SystematicName>


>  <Synonyms>
c-di-GMP, Cyclic diguanosine monophosphate

>  <Type>
NON-POLYMER

>  <Formula>
C20 H24 N10 O14 P2

>  <MolecularWeight>
690.411

>  <ModifiedDate>
2011-06-04

>  <Parent>


>  <OneLetterCode>


>  <SubcomponentList>


>  <AmbiguousFlag>
N

>  <InChI>
InChI=1S/C20H24N10O14P2/c21-19-25-13-7(15(33)27-19)23-3-29(13)17-9(31)11-5(41-17)1-39-45(35,36)44-12-6(2-40-46(37,38)43-11)42-18(10(12)32)30-4-24-8-14(30)26-20(22)28-16(8)34/h3-6,9-12,17-18,31-32H,1-2H2,(H,35,36)(H,37,38)(H3,21,25,27,33)(H3,22,26,28,34)/t5-,6-,9-,10-,11-,12-,17-,18-/m1/s1

>  <InChIKey>
PKFDLKSEZWEFGL-MHARETSRSA-N

>  <SMILES>
c1nc2c(n1[C@H]3[C@@H]([C@H]4[C@H](O3)CO[P@@](=O)(O[C@@H]5[C@@H](CO[P@@](=O)(O4)O)O[C@H]([C@@H]5O)n6cnc7c6N=C(NC7=O)N)O)O)N=C(NC2=O)N

$$$$
