untitled
 OpenBabel10091713583D

 64 69  0  0  1  0  0  0  0  0999 V2000
  160.0510   46.2150  143.6740 P   0  0  0  0  0  0  0  0  0  0  0  0
  158.4600   42.1310  147.3100 P   0  0  1  0  0  0  0  0  0  0  0  0
  158.6910   46.7130  145.8880 C   0  0  0  0  0  0  0  0  0  0  0  0
  158.8540   45.9340  144.7100 O   0  0  0  0  0  0  0  0  0  0  0  0
  157.7590   46.0030  146.8560 C   0  0  1  0  0  0  0  0  0  0  0  0
  156.4900   46.6380  146.7900 O   0  0  0  0  0  0  0  0  0  0  0  0
  157.5120   44.5270  146.5710 C   0  0  1  0  0  0  0  0  0  0  0  0
  158.2590   43.7330  147.4810 O   0  0  0  0  0  0  0  0  0  0  0  0
  156.0440   44.3480  146.8870 C   0  0  1  0  0  0  0  0  0  0  0  0
  155.8890   43.9950  148.2630 O   0  0  0  0  0  0  0  0  0  0  0  0
  155.4240   45.7040  146.7130 C   0  0  2  0  0  0  0  0  0  0  0  0
  160.8150   41.6360  142.4520 C   0  0  1  0  0  0  0  0  0  0  0  0
  151.4090   44.2980  143.6390 N   0  0  0  0  0  2  0  0  0  0  0  0
  151.6650   43.9920  144.9250 C   0  0  1  0  0  3  0  0  0  0  0  0
  160.6550   43.1380  142.3430 C   0  0  1  0  0  0  0  0  0  0  0  0
  150.7970   43.2040  145.5980 N   0  0  0  0  0  0  0  0  0  0  0  0
  160.4920   43.6300  143.7690 C   0  0  0  0  0  0  0  0  0  0  0  0
  152.7560   44.4290  145.5940 N   0  0  0  0  0  2  0  0  0  0  0  0
  153.6710   45.2170  144.9900 C   0  0  2  0  0  3  0  0  0  0  0  0
  161.2820   42.5920  144.5630 C   0  0  2  0  0  0  0  0  0  0  0  0
  161.3130   41.4020  143.7720 O   0  0  0  0  0  0  0  0  0  0  0  0
  153.4570   45.5890  143.5880 C   0  0  2  0  0  3  0  0  0  0  0  0
  160.7150   42.2650  145.9480 C   0  0  0  0  0  0  0  0  0  0  0  0
  159.3070   42.0330  145.9380 O   0  0  0  0  0  0  0  0  0  0  0  0
  152.2390   45.0730  142.9200 C   0  0  0  0  0  0  0  0  0  0  0  0
  152.0040   45.3620  141.7220 O   0  0  0  0  0  0  0  0  0  0  0  0
  154.5040   46.3590  143.2420 N   0  0  0  0  0  2  0  0  0  0  0  0
  155.3150   46.4740  144.3210 C   0  0  0  0  0  2  0  0  0  0  0  0
  154.8140   45.7910  145.3650 N   0  0  1  0  0  0  0  0  0  0  0  0
  156.4240   41.1180  139.6080 N   0  0  0  0  0  2  0  0  0  0  0  0
  159.3320   41.6910  148.4710 O   0  0  0  0  0  1  0  0  0  0  0  0
  157.5160   41.8630  139.3770 C   0  0  2  0  0  3  0  0  0  0  0  0
  157.5330   42.6040  138.2590 N   0  0  0  0  0  0  0  0  0  0  0  0
  157.1180   41.4870  147.0600 O   0  0  0  0  0  0  0  0  0  0  0  0
  158.5870   41.8990  140.2040 N   0  0  0  0  0  2  0  0  0  0  0  0
  158.6080   41.1630  141.3350 C   0  0  1  0  0  3  0  0  0  0  0  0
  157.4350   40.3220  141.6470 C   0  0  1  0  0  3  0  0  0  0  0  0
  156.3070   40.3340  140.6810 C   0  0  0  0  0  0  0  0  0  0  0  0
  155.2680   39.6620  140.8570 O   0  0  0  0  0  0  0  0  0  0  0  0
  157.7120   39.7000  142.8040 N   0  0  0  0  0  2  0  0  0  0  0  0
  158.9490   40.1140  143.1960 C   0  0  0  0  0  2  0  0  0  0  0  0
  159.4880   40.9850  142.3200 N   0  0  2  0  0  0  0  0  0  0  0  0
  159.5070   46.0810  142.2750 O   0  0  0  0  0  0  0  0  0  0  0  0
  160.7720   47.5040  144.0030 O   0  0  0  0  0  0  0  0  0  0  0  0
  161.8540   43.6560  141.7600 O   0  0  0  0  0  0  0  0  0  0  0  0
  159.6439   46.8551  146.3535 H   0  0  0  0  0  0  0  0  0  0  0  0
  158.2697   47.6612  145.6265 H   0  0  0  0  0  0  0  0  0  0  0  0
  158.2429   46.0628  147.8085 H   0  0  0  0  0  0  0  0  0  0  0  0
  157.7835   44.2470  145.5746 H   0  0  0  0  0  0  0  0  0  0  0  0
  155.6068   43.5942  146.2661 H   0  0  0  0  0  0  0  0  0  0  0  0
  156.2872   44.6821  148.8199 H   0  0  0  0  0  0  0  0  0  0  0  0
  154.6724   45.8904  147.4514 H   0  0  0  0  0  0  0  0  0  0  0  0
  161.4632   41.2486  141.6939 H   0  0  0  0  0  0  0  0  0  0  0  0
  159.8233   43.4416  141.7422 H   0  0  0  0  0  0  0  0  0  0  0  0
  150.0249   42.9463  144.9833 H   0  0  0  0  0  0  0  0  0  0  0  0
  150.4342   43.7103  146.4057 H   0  0  0  0  0  0  0  0  0  0  0  0
  159.4625   43.6396  144.0604 H   0  0  0  0  0  0  0  0  0  0  0  0
  160.8323   44.6335  143.9178 H   0  0  0  0  0  0  0  0  0  0  0  0
  162.2518   43.0024  144.7526 H   0  0  0  0  0  0  0  0  0  0  0  0
  160.9197   43.0867  146.6021 H   0  0  0  0  0  0  0  0  0  0  0  0
  161.1840   41.3619  146.2787 H   0  0  0  0  0  0  0  0  0  0  0  0
  156.6608   42.4684  137.7479 H   0  0  0  0  0  0  0  0  0  0  0  0
  158.3180   42.3184  137.6737 H   0  0  0  0  0  0  0  0  0  0  0  0
  162.6164   43.3873  142.2961 H   0  0  0  0  0  0  0  0  0  0  0  0
  1  4  1  0  0  0  0
  1 43  2  0  0  0  0
  1 44  2  0  0  0  0
  2 24  1  0  0  0  0
  2 31  1  1  0  0  0
  2 34  2  0  0  0  0
  3  5  1  0  0  0  0
  3 46  1  0  0  0  0
  3 47  1  0  0  0  0
  4  3  1  0  0  0  0
  5  6  1  0  0  0  0
  5  7  1  0  0  0  0
  5 48  1  1  0  0  0
  6 11  1  0  0  0  0
  7  8  1  0  0  0  0
  7  9  1  0  0  0  0
  7 49  1  6  0  0  0
  8  2  1  0  0  0  0
  9 10  1  0  0  0  0
  9 11  1  0  0  0  0
  9 50  1  6  0  0  0
 10 51  1  0  0  0  0
 11 29  1  0  0  0  0
 11 52  1  1  0  0  0
 12 42  1  0  0  0  0
 12 53  1  6  0  0  0
 13 14  1  0  0  0  0
 14 16  1  6  0  0  0
 14 18  1  0  0  0  0
 15 12  1  0  0  0  0
 15 45  1  0  0  0  0
 15 54  1  6  0  0  0
 16 55  1  0  0  0  0
 16 56  1  0  0  0  0
 17 15  1  0  0  0  0
 17 57  1  0  0  0  0
 17 58  1  0  0  0  0
 19 18  1  6  0  0  0
 20 17  1  0  0  0  0
 20 21  1  0  0  0  0
 20 59  1  1  0  0  0
 21 12  1  0  0  0  0
 22 19  1  0  0  0  0
 22 25  1  6  0  0  0
 23 20  1  0  0  0  0
 23 60  1  0  0  0  0
 23 61  1  0  0  0  0
 24 23  1  0  0  0  0
 25 13  1  0  0  0  0
 25 26  2  0  0  0  0
 27 22  1  0  0  0  0
 28 27  1  0  0  0  0
 29 19  1  0  0  0  0
 29 28  1  1  0  0  0
 30 32  1  0  0  0  0
 32 33  1  6  0  0  0
 32 35  1  0  0  0  0
 33 62  1  0  0  0  0
 33 63  1  0  0  0  0
 36 35  1  6  0  0  0
 37 36  1  0  0  0  0
 37 38  1  6  0  0  0
 38 30  1  0  0  0  0
 38 39  2  0  0  0  0
 40 37  1  0  0  0  0
 41 40  1  0  0  0  0
 42 36  1  0  0  0  0
 42 41  1  1  0  0  0
 45 64  1  0  0  0  0
M  END
$$$$
