REMARK  2 active torsions:
REMARK  status: ('A' for Active; 'I' for Inactive)
REMARK    1  A    between atoms: C_12  and  N_13 
REMARK    2  A    between atoms: C_35  and  N_36 
ROOT
ATOM      1  P   UNL d   1     188.109  24.705 140.503  0.00  0.00     0.410 P 
ATOM      2  O   UNL d   1     189.294  24.725 141.452  0.00  0.00    -0.624 OA
ATOM      3  O   UNL d   1     187.956  23.551 139.537  0.00  0.00    -0.624 OA
ATOM      4  O   UNL d   1     186.757  24.810 141.378  0.00  0.00    -0.268 OA
ATOM      5  C   UNL d   1     185.556  24.318 140.800  0.00  0.00     0.187 C 
ATOM      6  C   UNL d   1     184.313  24.869 141.474  0.00  0.00     0.178 C 
ATOM      7  O   UNL d   1     184.094  24.080 142.641  0.00  0.00    -0.331 OA
ATOM      8  C   UNL d   1     184.369  26.328 141.908  0.00  0.00     0.191 C 
ATOM      9  O   UNL d   1     183.702  27.163 140.958  0.00  0.00    -0.268 OA
ATOM     10  C   UNL d   1     183.578  26.300 143.202  0.00  0.00     0.231 C 
ATOM     11  O   UNL d   1     182.192  26.457 142.910  0.00  0.00    -0.216 OA
ATOM     12  C   UNL d   1     183.717  24.897 143.739  0.00  0.00     0.241 C 
ATOM     13  P   UNL d   1     183.950  28.769 140.884  0.00  0.00     0.410 P 
ATOM     14  O   UNL d   1     183.291  29.390 139.679  0.00  0.00    -0.624 OA
ATOM     15  O   UNL d   1     183.590  29.307 142.250  0.00  0.00    -0.624 OA
ATOM     16  O   UNL d   1     185.546  28.827 140.671  0.00  0.00    -0.268 OA
ATOM     17  C   UNL d   1     186.110  28.877 139.362  0.00  0.00     0.187 C 
ATOM     18  C   UNL d   1     187.583  28.457 139.309  0.00  0.00     0.178 C 
ATOM     19  O   UNL d   1     188.436  29.585 139.583  0.00  0.00    -0.331 OA
ATOM     20  C   UNL d   1     188.012  27.365 140.270  0.00  0.00     0.191 C 
ATOM     21  O   UNL d   1     188.057  26.079 139.650  0.00  0.00    -0.268 OA
ATOM     22  C   UNL d   1     189.421  27.769 140.642  0.00  0.00     0.231 C 
ATOM     23  O   UNL d   1     190.264  27.231 139.625  0.00  0.00    -0.216 OA
ATOM     24  C   UNL d   1     189.458  29.279 140.541  0.00  0.00     0.241 C 
ENDROOT
BRANCH  12  25
ATOM     25  N   UNL d   1     184.810  24.781 144.737  0.00  0.00    -0.269 N 
ATOM     26  C   UNL d   1     184.761  25.220 145.999  0.00  0.00     0.188 A 
ATOM     27  N   UNL d   1     183.828  25.853 146.742  0.00  0.00    -0.038 NA
ATOM     28  C   UNL d   1     186.048  24.880 146.619  0.00  0.00     0.176 A 
ATOM     29  C   UNL d   1     184.066  26.174 148.033  0.00  0.00     0.773 A 
ATOM     30  N   UNL d   1     185.219  25.895 148.664  0.00  0.00    -0.016 NA
ATOM     31  N   UNL d   1     183.087  26.804 148.699  0.00  0.00     0.062 N 
ATOM     32  C   UNL d   1     186.234  25.263 148.056  0.00  0.00     0.316 A 
ATOM     33  O   UNL d   1     187.301  25.013 148.673  0.00  0.00    -0.263 OA
ATOM     34  N   UNL d   1     186.773  24.255 145.655  0.00  0.00    -0.217 NA
ATOM     35  C   UNL d   1     186.011  24.203 144.524  0.00  0.00     0.182 A 
ENDBRANCH  12  25
BRANCH  24  36
ATOM     36  N   UNL d   1     189.091  29.892 141.852  0.00  0.00    -0.269 N 
ATOM     37  C   UNL d   1     189.725  29.739 143.016  0.00  0.00     0.188 A 
ATOM     38  C   UNL d   1     188.981  30.518 144.013  0.00  0.00     0.176 A 
ATOM     39  N   UNL d   1     190.820  29.057 143.419  0.00  0.00    -0.038 NA
ATOM     40  N   UNL d   1     187.953  31.085 143.364  0.00  0.00    -0.217 NA
ATOM     41  C   UNL d   1     189.488  30.519 145.406  0.00  0.00     0.316 A 
ATOM     42  C   UNL d   1     188.031  30.695 142.066  0.00  0.00     0.182 A 
ATOM     43  O   UNL d   1     188.897  31.166 146.304  0.00  0.00    -0.263 OA
ATOM     44  N   UNL d   1     190.586  29.805 145.668  0.00  0.00    -0.016 NA
ATOM     45  C   UNL d   1     191.231  29.099 144.712  0.00  0.00     0.773 A 
ATOM     46  N   UNL d   1     192.337  28.392 145.054  0.00  0.00     0.062 N 
ENDBRANCH  24  36
TORSDOF 2
