@<TRIPOS>MOLECULE
4YB0_C2E_R_102
 46 52 0 0 0
SMALL
GASTEIGER
****
Coordinates from PDB:4YB0:R:102 Model:1 without hydrogens
@<TRIPOS>ATOM
      1 P         188.1090   24.7050  140.5030 P.3     1  UNL1        0.2141
      2 O         189.2940   24.7250  141.4520 O.3     1  UNL1       -0.4373
      3 O         187.9560   23.5510  139.5370 O.2     1  UNL1       -0.5172
      4 O         186.7570   24.8100  141.3780 O.3     1  UNL1       -0.3114
      5 C         185.5560   24.3180  140.8000 C.3     1  UNL1        0.1812
      6 C         184.3130   24.8690  141.4740 C.3     1  UNL1        0.1773
      7 O         184.0940   24.0800  142.6410 O.3     1  UNL1       -0.3307
      8 C         184.3690   26.3280  141.9080 C.3     1  UNL1        0.1860
      9 O         183.7020   27.1630  140.9580 O.3     1  UNL1       -0.3112
     10 C         183.5780   26.3000  143.2020 C.3     1  UNL1        0.2309
     11 O         182.1920   26.4570  142.9100 O.3     1  UNL1       -0.2156
     12 C         183.7170   24.8970  143.7390 C.3     1  UNL1        0.2408
     13 N         184.8100   24.7810  144.7370 N.ar    1  UNL1       -0.2693
     14 C         186.0110   24.2030  144.5240 C.ar    1  UNL1        0.1817
     15 N         186.7730   24.2550  145.6550 N.ar    1  UNL1       -0.2173
     16 C         186.0480   24.8800  146.6190 C.ar    1  UNL1        0.1748
     17 C         186.2340   25.2630  148.0560 C.ar    1  UNL1        0.3023
     18 O         187.3010   25.0130  148.6730 O.2     1  UNL1       -0.2633
     19 N         185.2190   25.8950  148.6640 N.ar    1  UNL1       -0.1709
     20 C         184.0660   26.1740  148.0330 C.ar    1  UNL1        0.2606
     21 N         183.0870   26.8040  148.6990 N.pl3   1  UNL1       -0.0859
     22 N         183.8280   25.8530  146.7420 N.ar    1  UNL1       -0.1918
     23 C         184.7610   25.2200  145.9990 C.ar    1  UNL1        0.1723
     24 P         183.9500   28.7690  140.8840 P.3     1  UNL1        0.2141
     25 O         183.2910   29.3900  139.6790 O.3     1  UNL1       -0.4373
     26 O         183.5900   29.3070  142.2500 O.2     1  UNL1       -0.5172
     27 O         185.5460   28.8270  140.6710 O.3     1  UNL1       -0.3114
     28 C         186.1100   28.8770  139.3620 C.3     1  UNL1        0.1812
     29 C         187.5830   28.4570  139.3090 C.3     1  UNL1        0.1773
     30 O         188.4360   29.5850  139.5830 O.3     1  UNL1       -0.3307
     31 C         188.0120   27.3650  140.2700 C.3     1  UNL1        0.1860
     32 O         188.0570   26.0790  139.6500 O.3     1  UNL1       -0.3112
     33 C         189.4210   27.7690  140.6420 C.3     1  UNL1        0.2309
     34 O         190.2640   27.2310  139.6250 O.3     1  UNL1       -0.2156
     35 C         189.4580   29.2790  140.5410 C.3     1  UNL1        0.2408
     36 N         189.0910   29.8920  141.8520 N.ar    1  UNL1       -0.2693
     37 C         188.0310   30.6950  142.0660 C.ar    1  UNL1        0.1817
     38 N         187.9530   31.0850  143.3640 N.ar    1  UNL1       -0.2173
     39 C         188.9810   30.5180  144.0130 C.ar    1  UNL1        0.1748
     40 C         189.4880   30.5190  145.4060 C.ar    1  UNL1        0.3023
     41 O         188.8970   31.1660  146.3040 O.2     1  UNL1       -0.2633
     42 N         190.5860   29.8050  145.6680 N.ar    1  UNL1       -0.1709
     43 C         191.2310   29.0990  144.7120 C.ar    1  UNL1        0.2606
     44 N         192.3370   28.3920  145.0540 N.pl3   1  UNL1       -0.0859
     45 N         190.8200   29.0570  143.4190 N.ar    1  UNL1       -0.1918
     46 C         189.7250   29.7390  143.0160 C.ar    1  UNL1        0.1723
@<TRIPOS>BOND
     1     1     2    1
     2     3     1    2
     3     4     1    1
     4     5     4    1
     5     6     7    1
     6     6     5    1
     7     8     6    1
     8     8     9    1
     9     9    24    1
    10    10     8    1
    11    10    12    1
    12    10    11    1
    13    12     7    1
    14    12    13    1
    15    13    23   ar
    16    13    14   ar
    17    14    15   ar
    18    16    15   ar
    19    16    17   ar
    20    17    18    2
    21    19    17   ar
    22    20    19   ar
    23    21    20    1
    24    22    20   ar
    25    22    23   ar
    26    23    16   ar
    27    24    25    1
    28    24    27    1
    29    26    24    2
    30    28    27    1
    31    29    28    1
    32    29    30    1
    33    29    31    1
    34    30    35    1
    35    31    33    1
    36    31    32    1
    37    32     1    1
    38    33    34    1
    39    35    33    1
    40    35    36    1
    41    36    46   ar
    42    37    38   ar
    43    37    36   ar
    44    38    39   ar
    45    39    46   ar
    46    39    40   ar
    47    40    41    2
    48    40    42   ar
    49    43    42   ar
    50    43    44    1
    51    45    43   ar
    52    46    45   ar
