REMARK  9 active torsions:
REMARK  status: ('A' for Active; 'I' for Inactive)
REMARK    1  A    between atoms: C_1  and  O_2 
REMARK    2  A    between atoms: C_17  and  O_2 
REMARK    3  A    between atoms: C_9  and  C_11 
REMARK    4  A    between atoms: C_15  and  O_16 
REMARK    5  A    between atoms: C_21  and  O_16 
REMARK    6  A    between atoms: C_23  and  O_31 
REMARK    7  A    between atoms: C_24  and  C_26 
REMARK    8  A    between atoms: C_30  and  O_31 
REMARK    9  A    between atoms: C_32  and  C_34 
ROOT
ATOM      1  C   UNL d   1      -2.426   2.185   1.938  0.00  0.00     0.337 C 
ATOM      2  N   UNL d   1      -1.165   1.452   1.687  0.00  0.00     0.619 N 
ATOM      3  C   UNL d   1      -2.906   2.942   0.672  0.00  0.00     0.218 C 
ATOM      4  C   UNL d   1      -4.314   3.614   0.833  0.00  0.00     0.180 C 
ATOM      5  C   UNL d   1      -5.392   2.658   1.464  0.00  0.00     0.184 C 
ATOM      6  C   UNL d   1      -4.843   1.902   2.717  0.00  0.00     0.333 C 
ATOM      7  N   UNL d   1      -5.800   0.896   3.221  0.00  0.00     0.619 N 
ATOM      8  C   UNL d   1      -3.504   1.191   2.418  0.00  0.00     0.084 C 
ATOM      9  O   UNL d   1      -1.952   3.955   0.354  0.00  0.00    -0.218 OA
ENDROOT
BRANCH   4  10
ATOM     10  O   UNL d   1      -4.787   3.998  -0.486  0.00  0.00    -0.326 OA
BRANCH  10  11
ATOM     11  C   UNL d   1      -4.505   5.336  -0.989  0.00  0.00     0.270 C 
ATOM     12  C   UNL d   1      -3.307   5.259  -1.928  0.00  0.00     0.238 C 
ATOM     13  O   UNL d   1      -2.753   6.562  -2.112  0.00  0.00    -0.215 OA
ATOM     14  C   UNL d   1      -3.992   4.760  -3.193  0.00  0.00     0.183 C 
ATOM     15  C   UNL d   1      -5.290   5.580  -3.187  0.00  0.00     0.181 C 
ATOM     16  O   UNL d   1      -5.603   5.801  -1.791  0.00  0.00    -0.326 OA
BRANCH  14  17
ATOM     17  O   UNL d   1      -3.188   5.027  -4.378  0.00  0.00    -0.326 OA
BRANCH  17  18
ATOM     18  C   UNL d   1      -2.262   3.982  -4.790  0.00  0.00     0.277 C 
ATOM     19  C   UNL d   1      -2.934   2.995  -5.798  0.00  0.00     0.390 C 
ATOM     20  C   UNL d   1      -3.834   1.963  -5.059  0.00  0.00     0.227 C 
ATOM     21  N   UNL d   1      -3.682   3.696  -6.871  0.00  0.00     0.624 N 
ATOM     22  C   UNL d   1      -3.122   1.219  -3.895  0.00  0.00     0.214 C 
ATOM     23  O   UNL d   1      -4.284   0.993  -6.004  0.00  0.00    -0.218 OA
ATOM     24  C   UNL d   1      -1.697   1.803  -3.653  0.00  0.00     0.190 C 
ATOM     25  O   UNL d   1      -3.918   1.358  -2.716  0.00  0.00    -0.218 OA
ATOM     26  O   UNL d   1      -1.770   3.265  -3.591  0.00  0.00    -0.327 OA
BRANCH  24  27
ATOM     27  C   UNL d   1      -1.051   1.268  -2.349  0.00  0.00     0.370 C 
ATOM     28  N   UNL d   1      -0.301   2.303  -1.614  0.00  0.00     0.621 N 
ENDBRANCH  24  27
ENDBRANCH  17  18
ENDBRANCH  14  17
BRANCH  15  29
ATOM     29  C   UNL d   1      -6.459   4.862  -3.885  0.00  0.00     0.214 C 
ATOM     30  O   UNL d   1      -6.736   3.621  -3.259  0.00  0.00    -0.218 OA
ENDBRANCH  15  29
ENDBRANCH  10  11
ENDBRANCH   4  10
BRANCH   5  31
ATOM     31  O   UNL d   1      -6.556   3.434   1.884  0.00  0.00    -0.327 OA
BRANCH  31  32
ATOM     32  C   UNL d   1      -7.471   3.948   0.868  0.00  0.00     0.276 C 
ATOM     33  O   UNL d   1      -8.788   3.312   1.003  0.00  0.00    -0.327 OA
ATOM     34  C   UNL d   1      -9.919   3.842   0.238  0.00  0.00     0.190 C 
ATOM     35  C   UNL d   1     -10.163   5.341   0.608  0.00  0.00     0.214 C 
ATOM     36  C   UNL d   1      -9.022   5.893   1.504  0.00  0.00     0.227 C 
ATOM     37  O   UNL d   1     -11.397   5.477   1.304  0.00  0.00    -0.218 OA
ATOM     38  C   UNL d   1      -7.616   5.502   0.957  0.00  0.00     0.390 C 
ATOM     39  O   UNL d   1      -9.146   7.312   1.571  0.00  0.00    -0.218 OA
ATOM     40  N   UNL d   1      -6.549   6.104   1.789  0.00  0.00     0.624 N 
BRANCH  34  41
ATOM     41  C   UNL d   1      -9.594   3.594  -1.253  0.00  0.00     0.370 C 
ATOM     42  N   UNL d   1     -10.700   3.901  -2.177  0.00  0.00     0.621 N 
ENDBRANCH  34  41
ENDBRANCH  31  32
ENDBRANCH   5  31
TORSDOF 9
