@<TRIPOS>MOLECULE
1EI2_NMY_A_26
 42 45 0 0 0
SMALL
GASTEIGER
****
Coordinates from PDB:1EI2:A:26 Model:1 without hydrogens
@<TRIPOS>ATOM
      1 C          -7.4710    3.9480    0.8680 C.3     1  UNL1        0.2561
      2 O          -6.5560    3.4340    1.8840 O.3     1  UNL1       -0.3278
      3 C          -7.6160    5.5020    0.9570 C.3     1  UNL1        0.1807
      4 N          -6.5490    6.1040    1.7890 N.3     1  UNL1       -0.1248
      5 C          -9.0220    5.8930    1.5040 C.3     1  UNL1        0.2070
      6 O          -9.1460    7.3120    1.5710 O.3     1  UNL1       -0.2186
      7 C         -10.1630    5.3410    0.6080 C.3     1  UNL1        0.2122
      8 O         -11.3970    5.4770    1.3040 O.3     1  UNL1       -0.2177
      9 C          -9.9190    3.8420    0.2380 C.3     1  UNL1        0.1696
     10 O          -8.7880    3.3120    1.0030 O.3     1  UNL1       -0.3276
     11 C          -9.5940    3.5940   -1.2530 C.3     1  UNL1        0.1415
     12 C          -2.4260    2.1850    1.9380 C.3     1  UNL1        0.1261
     13 N          -1.1650    1.4520    1.6870 N.3     1  UNL1       -0.1301
     14 C          -2.9060    2.9420    0.6720 C.3     1  UNL1        0.1989
     15 C          -4.3140    3.6140    0.8330 C.3     1  UNL1        0.1779
     16 O          -4.7870    3.9980   -0.4860 O.3     1  UNL1       -0.3258
     17 C          -5.3920    2.6580    1.4640 C.3     1  UNL1        0.1649
     18 C          -4.8430    1.9020    2.7170 C.3     1  UNL1        0.1230
     19 N          -5.8000    0.8960    3.2210 N.3     1  UNL1       -0.1302
     20 C          -3.5040    1.1910    2.4180 C.3     1  UNL1        0.0433
     21 C          -4.5050    5.3360   -0.9890 C.3     1  UNL1        0.2694
     22 C          -3.3070    5.2590   -1.9280 C.3     1  UNL1        0.2373
     23 C          -3.9920    4.7600   -3.1930 C.3     1  UNL1        0.1827
     24 C          -5.2900    5.5800   -3.1870 C.3     1  UNL1        0.1804
     25 O          -5.6030    5.8010   -1.7910 O.3     1  UNL1       -0.3257
     26 C          -6.4590    4.8620   -3.8850 C.3     1  UNL1        0.2141
     27 C          -3.1220    1.2190   -3.8950 C.3     1  UNL1        0.2122
     28 C          -3.8340    1.9630   -5.0590 C.3     1  UNL1        0.2070
     29 C          -2.9340    2.9950   -5.7980 C.3     1  UNL1        0.1807
     30 C          -2.2620    3.9820   -4.7900 C.3     1  UNL1        0.2561
     31 O          -3.1880    5.0270   -4.3780 O.3     1  UNL1       -0.3265
     32 C          -1.6970    1.8030   -3.6530 C.3     1  UNL1        0.1696
     33 O          -1.7700    3.2650   -3.5910 O.3     1  UNL1       -0.3276
     34 C          -1.0510    1.2680   -2.3490 C.3     1  UNL1        0.1415
     35 N         -10.7000    3.9010   -2.1770 N.3     1  UNL1       -0.1286
     36 O          -2.7530    6.5620   -2.1120 O.3     1  UNL1       -0.2150
     37 O          -4.2840    0.9930   -6.0040 O.3     1  UNL1       -0.2186
     38 O          -3.9180    1.3580   -2.7160 O.3     1  UNL1       -0.2177
     39 O          -6.7360    3.6210   -3.2590 O.3     1  UNL1       -0.2176
     40 O          -1.9520    3.9550    0.3540 O.3     1  UNL1       -0.2189
     41 N          -0.3010    2.3030   -1.6140 N.3     1  UNL1       -0.1286
     42 N          -3.6820    3.6960   -6.8710 N.3     1  UNL1       -0.1248
@<TRIPOS>BOND
     1     1    10    1
     2     1     2    1
     3     1     3    1
     4     3     4    1
     5     3     5    1
     6     5     7    1
     7     5     6    1
     8     7     9    1
     9     7     8    1
    10     9    10    1
    11     9    11    1
    12    11    35    1
    13    12    13    1
    14    12    14    1
    15    12    20    1
    16    14    40    1
    17    14    15    1
    18    15    16    1
    19    15    17    1
    20    17     2    1
    21    17    18    1
    22    18    20    1
    23    18    19    1
    24    21    16    1
    25    21    22    1
    26    21    25    1
    27    22    36    1
    28    22    23    1
    29    23    31    1
    30    23    24    1
    31    24    25    1
    32    24    26    1
    33    26    39    1
    34    27    28    1
    35    27    32    1
    36    27    38    1
    37    28    29    1
    38    28    37    1
    39    29    42    1
    40    29    30    1
    41    30    33    1
    42    30    31    1
    43    32    33    1
    44    32    34    1
    45    34    41    1
