1FYP_PAR_A_28
 OpenBabel03221816523D

 87 90  0  0  1  0  0  0  0  0999 V2000
    4.9477   16.2655    3.0425 C   0  0  2  0  0  0  0  0  0  0  0  0
    4.6545   16.5708    4.0447 H   0  0  0  0  0  0  0  0  0  0  0  0
    3.7625   16.2002    2.2410 O   0  0  0  0  0  0  0  0  0  0  0  0
    2.7012   15.3351    2.6892 C   0  0  2  0  0  0  0  0  0  0  0  0
    1.8354   15.6595    2.0973 H   0  0  0  0  0  0  0  0  0  0  0  0
    2.3329   15.5257    4.2019 C   0  0  2  0  0  0  0  0  0  0  0  0
    3.2048   15.2457    4.8028 H   0  0  0  0  0  0  0  0  0  0  0  0
    1.1818   14.6167    4.6662 C   0  0  0  0  0  0  0  0  0  0  0  0
    1.4716   13.1576    4.2988 C   0  0  1  0  0  0  0  0  0  0  0  0
    2.4136   12.8577    4.7701 H   0  0  0  0  0  0  0  0  0  0  0  0
    0.4714   12.2379    4.8507 N   0  0  0  0  0  0  0  0  0  0  0  0
    1.6244   13.0529    2.7554 C   0  0  1  0  0  0  0  0  0  0  0  0
    0.7640   13.5077    2.2514 H   0  0  0  0  0  0  0  0  0  0  0  0
    2.9230   13.8188    2.3806 C   0  0  1  0  0  0  0  0  0  0  0  0
    3.7037   13.4553    3.0607 H   0  0  0  0  0  0  0  0  0  0  0  0
    3.4456   13.4407    1.1115 O   0  0  0  0  0  0  0  0  0  0  0  0
    2.9438   14.0319   -0.0710 C   0  0  1  0  0  0  0  0  0  0  0  0
    2.8349   15.1140    0.0499 H   0  0  0  0  0  0  0  0  0  0  0  0
    3.9609   13.7176   -1.1776 C   0  0  2  0  0  0  0  0  0  0  0  0
    4.1983   12.6421   -1.1655 H   0  0  0  0  0  0  0  0  0  0  0  0
    5.2051   14.4000   -1.0645 O   0  0  0  0  0  0  0  0  0  0  0  0
    3.1453   14.0457   -2.4182 C   0  0  2  0  0  0  0  0  0  0  0  0
    3.5384   13.6134   -3.3447 H   0  0  0  0  0  0  0  0  0  0  0  0
    2.9443   15.4591   -2.6061 O   0  0  0  0  0  0  0  0  0  0  0  0
    4.0866   16.2153   -3.0519 C   0  0  2  0  0  0  0  0  0  0  0  0
    4.8918   16.1103   -2.3266 H   0  0  0  0  0  0  0  0  0  0  0  0
    3.6816   17.7096   -3.1006 C   0  0  2  0  0  0  0  0  0  0  0  0
    3.2972   18.0112   -2.1243 H   0  0  0  0  0  0  0  0  0  0  0  0
    2.5930   17.9163   -4.0975 N   0  0  0  0  0  0  0  0  0  0  0  0
    4.9400   18.5511   -3.4526 C   0  0  1  0  0  0  0  0  0  0  0  0
    4.6212   19.5871   -3.6016 H   0  0  0  0  0  0  0  0  0  0  0  0
    5.8840   18.6160   -2.3700 O   0  0  0  0  0  0  0  0  0  0  0  0
    5.6215   18.0441   -4.7294 C   0  0  2  0  0  0  0  0  0  0  0  0
    6.6157   18.4957   -4.8277 H   0  0  0  0  0  0  0  0  0  0  0  0
    4.8665   18.4604   -5.8779 O   0  0  0  0  0  0  0  0  0  0  0  0
    5.7840   16.5011   -4.7103 C   0  0  1  0  0  0  0  0  0  0  0  0
    6.5440   16.2311   -3.9711 H   0  0  0  0  0  0  0  0  0  0  0  0
    4.5518   15.8219   -4.3432 O   0  0  0  0  0  0  0  0  0  0  0  0
    6.2440   16.0052   -6.1047 C   0  0  0  0  0  0  0  0  0  0  0  0
    6.5852   14.5766   -6.1330 N   0  0  0  0  0  0  0  0  0  0  0  0
    1.7884   13.4254   -2.0001 C   0  0  2  0  0  0  0  0  0  0  0  0
    0.9320   14.0052   -2.3669 H   0  0  0  0  0  0  0  0  0  0  0  0
    1.7096   13.4737   -0.5358 O   0  0  0  0  0  0  0  0  0  0  0  0
    1.6492   11.9621   -2.4525 C   0  0  0  0  0  0  0  0  0  0  0  0
    0.3899   11.3994   -2.0879 O   0  0  0  0  0  0  0  0  0  0  0  0
    1.6290   11.6894    2.3509 O   0  0  0  0  0  0  0  0  0  0  0  0
    2.0218   16.9193    4.5550 N   0  0  0  0  0  0  0  0  0  0  0  0
    5.8947   17.3874    2.5053 C   0  0  2  0  0  0  0  0  0  0  0  0
    5.3639   18.3421    2.5926 H   0  0  0  0  0  0  0  0  0  0  0  0
    6.2338   17.2201    1.0650 N   0  0  0  0  0  0  0  0  0  0  0  0
    7.1682   17.4202    3.3881 C   0  0  1  0  0  0  0  0  0  0  0  0
    7.8992   18.0756    2.8981 H   0  0  0  0  0  0  0  0  0  0  0  0
    6.9210   18.0492    4.6452 O   0  0  0  0  0  0  0  0  0  0  0  0
    7.7976   16.0211    3.5403 C   0  0  2  0  0  0  0  0  0  0  0  0
    8.5910   16.0296    4.2968 H   0  0  0  0  0  0  0  0  0  0  0  0
    8.4139   15.6601    2.2878 O   0  0  0  0  0  0  0  0  0  0  0  0
    6.7709   14.9208    3.8832 C   0  0  2  0  0  0  0  0  0  0  0  0
    7.2160   13.9550    3.6125 H   0  0  0  0  0  0  0  0  0  0  0  0
    5.5919   15.0005    3.0685 O   0  0  0  0  0  0  0  0  0  0  0  0
    6.4157   14.8132    5.3784 C   0  0  0  0  0  0  0  0  0  0  0  0
    5.9017   16.0349    5.9008 O   0  0  0  0  0  0  0  0  0  0  0  0
    0.2378   14.9359    4.2055 H   0  0  0  0  0  0  0  0  0  0  0  0
    1.0554   14.7132    5.7524 H   0  0  0  0  0  0  0  0  0  0  0  0
   -0.0543   11.8059    4.0932 H   0  0  0  0  0  0  0  0  0  0  0  0
   -0.1805   12.7016    5.4749 H   0  0  0  0  0  0  0  0  0  0  0  0
    5.1678   14.9073   -0.2243 H   0  0  0  0  0  0  0  0  0  0  0  0
    2.7966   17.2925   -4.8856 H   0  0  0  0  0  0  0  0  0  0  0  0
    2.6341   18.8555   -4.4882 H   0  0  0  0  0  0  0  0  0  0  0  0
    6.1353   17.7247   -2.0764 H   0  0  0  0  0  0  0  0  0  0  0  0
    4.7546   19.4259   -5.8278 H   0  0  0  0  0  0  0  0  0  0  0  0
    7.1227   16.5728   -6.4202 H   0  0  0  0  0  0  0  0  0  0  0  0
    5.4523   16.1678   -6.8409 H   0  0  0  0  0  0  0  0  0  0  0  0
    7.3024   14.3679   -5.4479 H   0  0  0  0  0  0  0  0  0  0  0  0
    6.9618   14.3411   -7.0485 H   0  0  0  0  0  0  0  0  0  0  0  0
    1.7182   11.8960   -3.5445 H   0  0  0  0  0  0  0  0  0  0  0  0
    2.4327   11.3276   -2.0192 H   0  0  0  0  0  0  0  0  0  0  0  0
    0.0106   11.9601   -1.3858 H   0  0  0  0  0  0  0  0  0  0  0  0
    2.4724   11.2906    2.6453 H   0  0  0  0  0  0  0  0  0  0  0  0
    2.5668   17.5514    3.9634 H   0  0  0  0  0  0  0  0  0  0  0  0
    1.0482   17.1340    4.3370 H   0  0  0  0  0  0  0  0  0  0  0  0
    6.7837   16.3530    0.9875 H   0  0  0  0  0  0  0  0  0  0  0  0
    6.8642   17.9731    0.7923 H   0  0  0  0  0  0  0  0  0  0  0  0
    6.5277   17.3960    5.2639 H   0  0  0  0  0  0  0  0  0  0  0  0
    9.1046   16.3195    2.0985 H   0  0  0  0  0  0  0  0  0  0  0  0
    5.6619   14.0320    5.5297 H   0  0  0  0  0  0  0  0  0  0  0  0
    7.3053   14.5556    5.9601 H   0  0  0  0  0  0  0  0  0  0  0  0
    5.0391   15.8344    6.3165 H   0  0  0  0  0  0  0  0  0  0  0  0
  1 48  1  6  0  0  0
  1 59  1  0  0  0  0
  1  3  1  0  0  0  0
  1  2  1  0  0  0  0
  4  6  1  1  0  0  0
  4  5  1  0  0  0  0
  4  3  1  0  0  0  0
  6  7  1  1  0  0  0
  6  8  1  0  0  0  0
  6 47  1  0  0  0  0
  8  9  1  0  0  0  0
  8 62  1  0  0  0  0
  8 63  1  0  0  0  0
  9 12  1  6  0  0  0
  9 11  1  0  0  0  0
  9 10  1  0  0  0  0
 11 64  1  0  0  0  0
 11 65  1  0  0  0  0
 12 13  1  0  0  0  0
 12 14  1  6  0  0  0
 12 46  1  0  0  0  0
 14  4  1  1  0  0  0
 14 16  1  0  0  0  0
 14 15  1  0  0  0  0
 16 17  1  0  0  0  0
 17 18  1  0  0  0  0
 17 19  1  6  0  0  0
 17 43  1  0  0  0  0
 19 22  1  6  0  0  0
 19 21  1  0  0  0  0
 19 20  1  0  0  0  0
 21 66  1  0  0  0  0
 22 23  1  0  0  0  0
 22 24  1  0  0  0  0
 22 41  1  1  0  0  0
 25 27  1  6  0  0  0
 25 38  1  0  0  0  0
 25 26  1  0  0  0  0
 25 24  1  0  0  0  0
 27 30  1  6  0  0  0
 27 29  1  0  0  0  0
 27 28  1  0  0  0  0
 29 67  1  0  0  0  0
 29 68  1  0  0  0  0
 30 32  1  0  0  0  0
 30 31  1  6  0  0  0
 32 69  1  0  0  0  0
 33 30  1  1  0  0  0
 33 34  1  0  0  0  0
 33 35  1  0  0  0  0
 35 70  1  0  0  0  0
 36 33  1  6  0  0  0
 36 37  1  0  0  0  0
 36 38  1  0  0  0  0
 36 39  1  0  0  0  0
 39 40  1  0  0  0  0
 39 71  1  0  0  0  0
 39 72  1  0  0  0  0
 40 73  1  0  0  0  0
 40 74  1  0  0  0  0
 41 43  1  0  0  0  0
 41 44  1  0  0  0  0
 41 42  1  6  0  0  0
 44 45  1  0  0  0  0
 44 75  1  0  0  0  0
 44 76  1  0  0  0  0
 45 77  1  0  0  0  0
 46 78  1  0  0  0  0
 47 79  1  0  0  0  0
 47 80  1  0  0  0  0
 48 51  1  1  0  0  0
 48 50  1  0  0  0  0
 48 49  1  0  0  0  0
 50 81  1  0  0  0  0
 50 82  1  0  0  0  0
 51 54  1  1  0  0  0
 51 53  1  0  0  0  0
 51 52  1  0  0  0  0
 53 83  1  0  0  0  0
 54 55  1  0  0  0  0
 54 56  1  0  0  0  0
 54 57  1  1  0  0  0
 56 84  1  0  0  0  0
 57 59  1  0  0  0  0
 57 60  1  0  0  0  0
 57 58  1  6  0  0  0
 60 61  1  0  0  0  0
 60 85  1  0  0  0  0
 60 86  1  0  0  0  0
 61 87  1  0  0  0  0
M  END
$$$$
