@<TRIPOS>MOLECULE
1FYP_PAR_A_28
 87 90 0 0 0
SMALL
GASTEIGER

@<TRIPOS>ATOM
      1 C           4.9477   16.2655    3.0425 C.3     1  UNL1        0.1776
      2 H           4.6545   16.5708    4.0447 H       1  UNL1        0.0927
      3 O           3.7625   16.2002    2.2410 O.3     1  UNL1       -0.3422
      4 C           2.7012   15.3351    2.6892 C.3     1  UNL1        0.1055
      5 H           1.8354   15.6595    2.0973 H       1  UNL1        0.0639
      6 C           2.3329   15.5257    4.2019 C.3     1  UNL1        0.0355
      7 H           3.2048   15.2457    4.8028 H       1  UNL1        0.0485
      8 C           1.1818   14.6167    4.6662 C.3     1  UNL1       -0.0175
      9 C           1.4716   13.1576    4.2988 C.3     1  UNL1        0.0351
     10 H           2.4136   12.8577    4.7701 H       1  UNL1        0.0485
     11 N           0.4714   12.2379    4.8507 N.3     1  UNL1       -0.3250
     12 C           1.6244   13.0529    2.7554 C.3     1  UNL1        0.0990
     13 H           0.7640   13.5077    2.2514 H       1  UNL1        0.0636
     14 C           2.9230   13.8188    2.3806 C.3     1  UNL1        0.1166
     15 H           3.7037   13.4553    3.0607 H       1  UNL1        0.0650
     16 O           3.4456   13.4407    1.1115 O.3     1  UNL1       -0.3402
     17 C           2.9438   14.0319   -0.0710 C.3     1  UNL1        0.1884
     18 H           2.8349   15.1140    0.0499 H       1  UNL1        0.0938
     19 C           3.9609   13.7176   -1.1776 C.3     1  UNL1        0.1345
     20 H           4.1983   12.6421   -1.1655 H       1  UNL1        0.0671
     21 O           5.2051   14.4000   -1.0645 O.3     1  UNL1       -0.3841
     22 C           3.1453   14.0457   -2.4182 C.3     1  UNL1        0.1205
     23 H           3.5384   13.6134   -3.3447 H       1  UNL1        0.0651
     24 O           2.9443   15.4591   -2.6061 O.3     1  UNL1       -0.3410
     25 C           4.0866   16.2153   -3.0519 C.3     1  UNL1        0.1776
     26 H           4.8918   16.1103   -2.3266 H       1  UNL1        0.0927
     27 C           3.6816   17.7096   -3.1006 C.3     1  UNL1        0.0853
     28 H           3.2972   18.0112   -2.1243 H       1  UNL1        0.0535
     29 N           2.5930   17.9163   -4.0975 N.3     1  UNL1       -0.3211
     30 C           4.9400   18.5511   -3.4526 C.3     1  UNL1        0.1033
     31 H           4.6212   19.5871   -3.6016 H       1  UNL1        0.0637
     32 O           5.8840   18.6160   -2.3700 O.3     1  UNL1       -0.3874
     33 C           5.6215   18.0441   -4.7294 C.3     1  UNL1        0.1100
     34 H           6.6157   18.4957   -4.8277 H       1  UNL1        0.0646
     35 O           4.8665   18.4604   -5.8779 O.3     1  UNL1       -0.3866
     36 C           5.7840   16.5011   -4.7103 C.3     1  UNL1        0.1022
     37 H           6.5440   16.2311   -3.9711 H       1  UNL1        0.0636
     38 O           4.5518   15.8219   -4.3432 O.3     1  UNL1       -0.3425
     39 C           6.2440   16.0052   -6.1047 C.3     1  UNL1        0.0222
     40 N           6.5852   14.5766   -6.1330 N.3     1  UNL1       -0.3276
     41 C           1.7884   13.4254   -2.0001 C.3     1  UNL1        0.1135
     42 H           0.9320   14.0052   -2.3669 H       1  UNL1        0.0647
     43 O           1.7096   13.4737   -0.5358 O.3     1  UNL1       -0.3405
     44 C           1.6492   11.9621   -2.4525 C.3     1  UNL1        0.0730
     45 O           0.3899   11.3994   -2.0879 O.3     1  UNL1       -0.3924
     46 O           1.6290   11.6894    2.3509 O.3     1  UNL1       -0.3876
     47 N           2.0218   16.9193    4.5550 N.3     1  UNL1       -0.3250
     48 C           5.8947   17.3874    2.5053 C.3     1  UNL1        0.0853
     49 H           5.3639   18.3421    2.5926 H       1  UNL1        0.0535
     50 N           6.2338   17.2201    1.0650 N.3     1  UNL1       -0.3211
     51 C           7.1682   17.4202    3.3881 C.3     1  UNL1        0.1033
     52 H           7.8992   18.0756    2.8981 H       1  UNL1        0.0637
     53 O           6.9210   18.0492    4.6452 O.3     1  UNL1       -0.3874
     54 C           7.7976   16.0211    3.5403 C.3     1  UNL1        0.1109
     55 H           8.5910   16.0296    4.2968 H       1  UNL1        0.0646
     56 O           8.4139   15.6601    2.2878 O.3     1  UNL1       -0.3865
     57 C           6.7709   14.9208    3.8832 C.3     1  UNL1        0.1129
     58 H           7.2160   13.9550    3.6125 H       1  UNL1        0.0647
     59 O           5.5919   15.0005    3.0685 O.3     1  UNL1       -0.3415
     60 C           6.4157   14.8132    5.3784 C.3     1  UNL1        0.0730
     61 O           5.9017   16.0349    5.9008 O.3     1  UNL1       -0.3924
     62 H           0.2378   14.9359    4.2055 H       1  UNL1        0.0297
     63 H           1.0554   14.7132    5.7524 H       1  UNL1        0.0297
     64 H          -0.0543   11.8059    4.0932 H       1  UNL1        0.1185
     65 H          -0.1805   12.7016    5.4749 H       1  UNL1        0.1185
     66 H           5.1678   14.9073   -0.2243 H       1  UNL1        0.2101
     67 H           2.7966   17.2925   -4.8856 H       1  UNL1        0.1187
     68 H           2.6341   18.8555   -4.4882 H       1  UNL1        0.1187
     69 H           6.1353   17.7247   -2.0764 H       1  UNL1        0.2100
     70 H           4.7546   19.4259   -5.8278 H       1  UNL1        0.2100
     71 H           7.1227   16.5728   -6.4202 H       1  UNL1        0.0448
     72 H           5.4523   16.1678   -6.8409 H       1  UNL1        0.0448
     73 H           7.3024   14.3679   -5.4479 H       1  UNL1        0.1183
     74 H           6.9618   14.3411   -7.0485 H       1  UNL1        0.1183
     75 H           1.7182   11.8960   -3.5445 H       1  UNL1        0.0584
     76 H           2.4327   11.3276   -2.0192 H       1  UNL1        0.0584
     77 H           0.0106   11.9601   -1.3858 H       1  UNL1        0.2095
     78 H           2.4724   11.2906    2.6453 H       1  UNL1        0.2100
     79 H           2.5668   17.5514    3.9634 H       1  UNL1        0.1185
     80 H           1.0482   17.1340    4.3370 H       1  UNL1        0.1185
     81 H           6.7837   16.3530    0.9875 H       1  UNL1        0.1187
     82 H           6.8642   17.9731    0.7923 H       1  UNL1        0.1187
     83 H           6.5277   17.3960    5.2639 H       1  UNL1        0.2100
     84 H           9.1046   16.3195    2.0985 H       1  UNL1        0.2100
     85 H           5.6619   14.0320    5.5297 H       1  UNL1        0.0584
     86 H           7.3053   14.5556    5.9601 H       1  UNL1        0.0584
     87 H           5.0391   15.8344    6.3165 H       1  UNL1        0.2095
@<TRIPOS>BOND
     1     1    48    1
     2     1    59    1
     3     1     3    1
     4     1     2    1
     5     4     6    1
     6     4     5    1
     7     4     3    1
     8     6     7    1
     9     6     8    1
    10     6    47    1
    11     8     9    1
    12     8    62    1
    13     8    63    1
    14     9    12    1
    15     9    11    1
    16     9    10    1
    17    11    64    1
    18    11    65    1
    19    12    13    1
    20    12    14    1
    21    12    46    1
    22    14     4    1
    23    14    16    1
    24    14    15    1
    25    16    17    1
    26    17    18    1
    27    17    19    1
    28    17    43    1
    29    19    22    1
    30    19    21    1
    31    19    20    1
    32    21    66    1
    33    22    23    1
    34    22    24    1
    35    22    41    1
    36    25    27    1
    37    25    38    1
    38    25    26    1
    39    25    24    1
    40    27    30    1
    41    27    29    1
    42    27    28    1
    43    29    67    1
    44    29    68    1
    45    30    32    1
    46    30    31    1
    47    32    69    1
    48    33    30    1
    49    33    34    1
    50    33    35    1
    51    35    70    1
    52    36    33    1
    53    36    37    1
    54    36    38    1
    55    36    39    1
    56    39    40    1
    57    39    71    1
    58    39    72    1
    59    40    73    1
    60    40    74    1
    61    41    43    1
    62    41    44    1
    63    41    42    1
    64    44    45    1
    65    44    75    1
    66    44    76    1
    67    45    77    1
    68    46    78    1
    69    47    79    1
    70    47    80    1
    71    48    51    1
    72    48    50    1
    73    48    49    1
    74    50    81    1
    75    50    82    1
    76    51    54    1
    77    51    53    1
    78    51    52    1
    79    53    83    1
    80    54    55    1
    81    54    56    1
    82    54    57    1
    83    56    84    1
    84    57    59    1
    85    57    60    1
    86    57    58    1
    87    60    61    1
    88    60    85    1
    89    60    86    1
    90    61    87    1
