REMARK  22 active torsions:
REMARK  status: ('A' for Active; 'I' for Inactive)
REMARK    1  A    between atoms: C_1  and  O_2 
REMARK    2  A    between atoms: C_3  and  O_2 
REMARK    3  A    between atoms: C_4  and  N_32 
REMARK    4  A    between atoms: C_6  and  N_7 
REMARK    5  A    between atoms: C_8  and  O_31 
REMARK    6  A    between atoms: C_9  and  O_10 
REMARK    7  A    between atoms: O_10  and  C_11 
REMARK    8  A    between atoms: C_12  and  O_13 
REMARK    9  A    between atoms: C_14  and  O_15 
REMARK   10  A    between atoms: C_16  and  O_15 
REMARK   11  A    between atoms: C_17  and  N_18 
REMARK   12  A    between atoms: C_19  and  O_20 
REMARK   13  A    between atoms: C_21  and  O_22 
REMARK   14  A    between atoms: C_23  and  C_25 
REMARK   15  A    between atoms: C_25  and  N_26 
REMARK   16  A    between atoms: C_27  and  C_29 
REMARK   17  A    between atoms: C_29  and  O_30 
REMARK   18  A    between atoms: C_33  and  N_34 
REMARK   19  A    between atoms: C_35  and  O_36 
REMARK   20  A    between atoms: C_37  and  O_38 
REMARK   21  A    between atoms: C_39  and  C_41 
REMARK   22  A    between atoms: C_41  and  O_42 
ROOT
ATOM      1  C   UNL d   1       2.701  15.335   2.689  0.00  0.00     0.189 C 
ATOM      2  C   UNL d   1       2.333  15.526   4.202  0.00  0.00     0.251 C 
ATOM      3  C   UNL d   1       1.182  14.617   4.666  0.00  0.00     0.076 C 
ATOM      4  C   UNL d   1       1.472  13.158   4.299  0.00  0.00     0.251 C 
ATOM      5  C   UNL d   1       1.624  13.053   2.755  0.00  0.00     0.182 C 
ATOM      6  C   UNL d   1       2.923  13.819   2.381  0.00  0.00     0.186 C 
ENDROOT
BRANCH   6   7
ATOM      7  O   UNL d   1       3.446  13.441   1.111  0.00  0.00    -0.348 OA
BRANCH   7   8
ATOM      8  C   UNL d   1       2.944  14.032  -0.071  0.00  0.00     0.292 C 
ATOM      9  C   UNL d   1       3.961  13.718  -1.178  0.00  0.00     0.205 C 
ATOM     10  C   UNL d   1       3.145  14.046  -2.418  0.00  0.00     0.189 C 
ATOM     11  C   UNL d   1       1.788  13.425  -2.000  0.00  0.00     0.180 C 
ATOM     12  O   UNL d   1       1.710  13.474  -0.536  0.00  0.00    -0.348 OA
BRANCH   9  13
ATOM     13  O   UNL d   1       5.205  14.400  -1.065  0.00  0.00    -0.388 OA
ATOM     14  H   UNL d   1       5.168  14.907  -0.224  0.00  0.00     0.210 HD
ENDBRANCH   9  13
BRANCH  10  15
ATOM     15  O   UNL d   1       2.944  15.459  -2.606  0.00  0.00    -0.348 OA
BRANCH  15  16
ATOM     16  C   UNL d   1       4.087  16.215  -3.052  0.00  0.00     0.296 C 
ATOM     17  C   UNL d   1       3.682  17.710  -3.101  0.00  0.00     0.303 C 
ATOM     18  C   UNL d   1       4.940  18.551  -3.453  0.00  0.00     0.187 C 
ATOM     19  C   UNL d   1       5.622  18.044  -4.729  0.00  0.00     0.179 C 
ATOM     20  C   UNL d   1       5.784  16.501  -4.710  0.00  0.00     0.183 C 
ATOM     21  O   UNL d   1       4.552  15.822  -4.343  0.00  0.00    -0.349 OA
BRANCH  17  22
ATOM     22  N   UNL d   1       2.593  17.916  -4.098  0.00  0.00     0.090 N 
ATOM     23  H   UNL d   1       2.797  17.293  -4.886  0.00  0.00     0.313 HD
ATOM     24  H   UNL d   1       2.634  18.855  -4.488  0.00  0.00     0.313 HD
ENDBRANCH  17  22
BRANCH  18  25
ATOM     25  O   UNL d   1       5.884  18.616  -2.370  0.00  0.00    -0.391 OA
ATOM     26  H   UNL d   1       6.135  17.725  -2.076  0.00  0.00     0.210 HD
ENDBRANCH  18  25
BRANCH  19  27
ATOM     27  O   UNL d   1       4.867  18.460  -5.878  0.00  0.00    -0.390 OA
ATOM     28  H   UNL d   1       4.755  19.426  -5.828  0.00  0.00     0.210 HD
ENDBRANCH  19  27
BRANCH  20  29
ATOM     29  C   UNL d   1       6.244  16.005  -6.105  0.00  0.00     0.301 C 
BRANCH  29  30
ATOM     30  N   UNL d   1       6.585  14.577  -6.133  0.00  0.00     0.080 N 
ATOM     31  H   UNL d   1       7.302  14.368  -5.448  0.00  0.00     0.312 HD
ATOM     32  H   UNL d   1       6.962  14.341  -7.048  0.00  0.00     0.312 HD
ENDBRANCH  29  30
ENDBRANCH  20  29
ENDBRANCH  15  16
ENDBRANCH  10  15
BRANCH  11  33
ATOM     33  C   UNL d   1       1.649  11.962  -2.453  0.00  0.00     0.198 C 
BRANCH  33  34
ATOM     34  O   UNL d   1       0.390  11.399  -2.088  0.00  0.00    -0.398 OA
ATOM     35  H   UNL d   1       0.011  11.960  -1.386  0.00  0.00     0.209 HD
ENDBRANCH  33  34
ENDBRANCH  11  33
ENDBRANCH   7   8
ENDBRANCH   6   7
BRANCH   5  36
ATOM     36  O   UNL d   1       1.629  11.689   2.351  0.00  0.00    -0.391 OA
ATOM     37  H   UNL d   1       2.472  11.291   2.645  0.00  0.00     0.210 HD
ENDBRANCH   5  36
BRANCH   1  38
ATOM     38  O   UNL d   1       3.763  16.200   2.241  0.00  0.00    -0.349 OA
BRANCH  38  39
ATOM     39  C   UNL d   1       4.948  16.265   3.042  0.00  0.00     0.296 C 
ATOM     40  C   UNL d   1       5.895  17.387   2.505  0.00  0.00     0.303 C 
ATOM     41  C   UNL d   1       7.168  17.420   3.388  0.00  0.00     0.187 C 
ATOM     42  C   UNL d   1       7.798  16.021   3.540  0.00  0.00     0.180 C 
ATOM     43  C   UNL d   1       6.771  14.921   3.883  0.00  0.00     0.179 C 
ATOM     44  O   UNL d   1       5.592  15.001   3.068  0.00  0.00    -0.349 OA
BRANCH  40  45
ATOM     45  N   UNL d   1       6.234  17.220   1.065  0.00  0.00     0.090 N 
ATOM     46  H   UNL d   1       6.784  16.353   0.988  0.00  0.00     0.313 HD
ATOM     47  H   UNL d   1       6.864  17.973   0.792  0.00  0.00     0.313 HD
ENDBRANCH  40  45
BRANCH  41  48
ATOM     48  O   UNL d   1       6.921  18.049   4.645  0.00  0.00    -0.391 OA
ATOM     49  H   UNL d   1       6.528  17.396   5.264  0.00  0.00     0.210 HD
ENDBRANCH  41  48
BRANCH  42  50
ATOM     50  O   UNL d   1       8.414  15.660   2.288  0.00  0.00    -0.390 OA
ATOM     51  H   UNL d   1       9.105  16.320   2.099  0.00  0.00     0.210 HD
ENDBRANCH  42  50
BRANCH  43  52
ATOM     52  C   UNL d   1       6.416  14.813   5.378  0.00  0.00     0.198 C 
BRANCH  52  53
ATOM     53  O   UNL d   1       5.902  16.035   5.901  0.00  0.00    -0.398 OA
ATOM     54  H   UNL d   1       5.039  15.834   6.316  0.00  0.00     0.209 HD
ENDBRANCH  52  53
ENDBRANCH  43  52
ENDBRANCH  38  39
ENDBRANCH   1  38
BRANCH   4  55
ATOM     55  N   UNL d   1       0.471  12.238   4.851  0.00  0.00     0.085 N 
ATOM     56  H   UNL d   1      -0.054  11.806   4.093  0.00  0.00     0.313 HD
ATOM     57  H   UNL d   1      -0.180  12.702   5.475  0.00  0.00     0.313 HD
ENDBRANCH   4  55
BRANCH   2  58
ATOM     58  N   UNL d   1       2.022  16.919   4.555  0.00  0.00     0.085 N 
ATOM     59  H   UNL d   1       2.567  17.551   3.963  0.00  0.00     0.313 HD
ATOM     60  H   UNL d   1       1.048  17.134   4.337  0.00  0.00     0.313 HD
ENDBRANCH   2  58
TORSDOF 22
