@<TRIPOS>MOLECULE
4LVX_H4B_A_101
 17 18 0 0 0
SMALL
GASTEIGER
****
Coordinates from PDB:4LVX:A:101 Model:1 without hydrogens
@<TRIPOS>ATOM
      1 N          -2.4380    5.9710   23.7220 N.ar    1  UNL1       -0.1931
      2 C          -2.3080    6.6190   24.9570 C.ar    1  UNL1        0.2605
      3 N          -3.3980    6.5970   25.8890 N.pl3   1  UNL1       -0.0859
      4 N          -1.1470    7.2750   25.3050 N.ar    1  UNL1       -0.1711
      5 C          -0.0710    7.3210   24.4430 C.ar    1  UNL1        0.2993
      6 O           0.9450    7.9060   24.7670 O.2     1  UNL1       -0.2636
      7 C          -0.1500    6.6820   23.1660 C.ar    1  UNL1        0.1566
      8 C          -1.3590    6.0030   22.8270 C.ar    1  UNL1        0.1703
      9 N           0.9660    6.7130   22.2240 N.pl3   1  UNL1       -0.2278
     10 N          -1.4630    5.3340   21.5170 N.pl3   1  UNL1       -0.2171
     11 C           0.9210    5.9080   21.0560 C.3     1  UNL1        0.1471
     12 C          -0.5180    5.6480   20.5360 C.3     1  UNL1        0.1380
     13 C           1.7040    4.6370   21.3300 C.3     1  UNL1        0.2035
     14 O           0.9420    3.5240   21.0350 O.3     1  UNL1       -0.2185
     15 C           2.9760    4.6270   20.5360 C.3     1  UNL1        0.1840
     16 C           4.2100    4.6910   21.4610 C.3     1  UNL1        0.0383
     17 O           3.0230    5.6770   19.7040 O.3     1  UNL1       -0.2204
@<TRIPOS>BOND
     1     1     2   ar
     2     1     8   ar
     3     2     3    1
     4     2     4   ar
     5     4     5   ar
     6     5     6    2
     7     5     7   ar
     8     7     8   ar
     9     7     9    1
    10     8    10    1
    11     9    11    1
    12    10    12    1
    13    11    12    1
    14    11    13    1
    15    13    14    1
    16    13    15    1
    17    15    16    1
    18    15    17    1
