4LVX_H4B_A_101
 OpenBabel10091713583D
Coordinates from PDB:4LVX:A:101 Model:1 without hydrogens
 17 18  0  0  0  0  0  0  0  0999 V2000
   -2.4380    5.9710   23.7220 N   0  0  0  0  0  0  0  0  0  0  0  0
   -2.3080    6.6190   24.9570 C   0  0  0  0  0  0  0  0  0  0  0  0
   -3.3980    6.5970   25.8890 N   0  0  0  0  0  0  0  0  0  0  0  0
   -1.1470    7.2750   25.3050 N   0  0  0  0  0  0  0  0  0  0  0  0
   -0.0710    7.3210   24.4430 C   0  0  0  0  0  0  0  0  0  0  0  0
    0.9450    7.9060   24.7670 O   0  0  0  0  0  0  0  0  0  0  0  0
   -0.1500    6.6820   23.1660 C   0  0  0  0  0  0  0  0  0  0  0  0
   -1.3590    6.0030   22.8270 C   0  0  0  0  0  0  0  0  0  0  0  0
    0.9660    6.7130   22.2240 N   0  0  0  0  0  0  0  0  0  0  0  0
   -1.4630    5.3340   21.5170 N   0  0  0  0  0  0  0  0  0  0  0  0
    0.9210    5.9080   21.0560 C   0  0  2  0  0  0  0  0  0  0  0  0
   -0.5180    5.6480   20.5360 C   0  0  0  0  0  0  0  0  0  0  0  0
    1.7040    4.6370   21.3300 C   0  0  1  0  0  0  0  0  0  0  0  0
    0.9420    3.5240   21.0350 O   0  0  0  0  0  0  0  0  0  0  0  0
    2.9760    4.6270   20.5360 C   0  0  2  0  0  0  0  0  0  0  0  0
    4.2100    4.6910   21.4610 C   0  0  0  0  0  0  0  0  0  0  0  0
    3.0230    5.6770   19.7040 O   0  0  0  0  0  0  0  0  0  0  0  0
  1  2  2  0  0  0  0
  1  8  1  0  0  0  0
  2  3  1  0  0  0  0
  2  4  1  0  0  0  0
  4  5  1  0  0  0  0
  5  6  2  0  0  0  0
  5  7  1  0  0  0  0
  7  8  2  0  0  0  0
  7  9  1  0  0  0  0
  8 10  1  0  0  0  0
  9 11  1  0  0  0  0
 10 12  1  0  0  0  0
 11 12  1  0  0  0  0
 11 13  1  1  0  0  0
 13 14  1  6  0  0  0
 13 15  1  0  0  0  0
 15 16  1  1  0  0  0
 15 17  1  0  0  0  0
A    1
N1
A    2
C2
A    3
N2
A    4
N3
A    5
C4
A    6
O4
A    7
C4A
A    8
C8A
A    9
N5
A   10
N8
A   11
C6
A   12
C7
A   13
C9
A   14
O9
A   15
C10
A   16
C11
A   17
O10
M  END
>  <InstanceId>
4LVX_H4B_A_101

>  <ChemCompId>
H4B

>  <PdbId>
4LVX

>  <ChainId>
A

>  <ResidueNumber>
101

>  <InsertionCode>


>  <Model>
1

>  <AltIds>


>  <MissingHeavyAtoms>
0

>  <ObservedFormula>
C9 N5 O3

>  <Name>
5,6,7,8-TETRAHYDROBIOPTERIN

>  <SystematicName>
(6R)-2-amino-6-[(1R,2S)-1,2-dihydroxypropyl]-5,6,7,8-tetrahydro-3H-pteridin-4-one

>  <Synonyms>


>  <Type>
NON-POLYMER

>  <Formula>
C9 H15 N5 O3

>  <MolecularWeight>
241.247

>  <ModifiedDate>
2011-06-04

>  <Parent>


>  <OneLetterCode>


>  <SubcomponentList>


>  <AmbiguousFlag>
N

>  <InChI>
InChI=1S/C9H15N5O3/c1-3(15)6(16)4-2-11-7-5(12-4)8(17)14-9(10)13-7/h3-4,6,12,15-16H,2H2,1H3,(H4,10,11,13,14,17)/t3-,4+,6-/m0/s1

>  <InChIKey>
FNKQXYHWGSIFBK-RPDRRWSUSA-N

>  <SMILES>
C[C@@H]([C@@H]([C@H]1CNC2=C(N1)C(=O)NC(=N2)N)O)O

$$$$
