REMARK  4 active torsions:
REMARK  status: ('A' for Active; 'I' for Inactive)
REMARK    1  A    between atoms: N_7  and  C_22 
REMARK    2  A    between atoms: C_8  and  C_11 
REMARK    3  A    between atoms: C_11  and  N_12 
REMARK    4  A    between atoms: N_12  and  C_16 
ROOT
ATOM      1  N   UNL d   1      14.482 -21.015  25.295  0.00  0.00    -0.194 NA
ATOM      2  C   UNL d   1      13.979 -20.654  26.487  0.00  0.00     0.241 A 
ATOM      3  N   UNL d   1      14.696 -19.987  27.383  0.00  0.00    -0.187 NA
ATOM      4  C   UNL d   1      15.970 -19.650  27.110  0.00  0.00     0.234 A 
ATOM      5  O   UNL d   1      16.692 -18.959  28.057  0.00  0.00    -0.167 OA
ATOM      6  N   UNL d   1      17.891 -19.729  25.430  0.00  0.00    -0.284 N 
ATOM      7  C   UNL d   1      18.571 -20.788  24.673  0.00  0.00     0.137 C 
ATOM      8  C   UNL d   1      17.729 -21.235  23.519  0.00  0.00     0.152 C 
ATOM      9  N   UNL d   1      16.289 -21.077  23.713  0.00  0.00    -0.249 NA
ATOM     10  C   UNL d   1      16.532 -20.005  25.852  0.00  0.00     0.143 A 
ATOM     11  C   UNL d   1      15.751 -20.704  24.966  0.00  0.00     0.180 A 
ATOM     12  N   UNL d   1      12.619 -21.003  26.799  0.00  0.00    -0.059 NA
ENDROOT
BRANCH   7  13
ATOM     13  C   UNL d   1      18.941 -22.019  25.520  0.00  0.00     0.150 C 
BRANCH  13  14
ATOM     14  N   UNL d   1      19.927 -21.663  26.533  0.00  0.00    -0.269 NA
BRANCH  14  15
ATOM     15  C   UNL d   1      21.348 -21.905  26.316  0.00  0.00     0.076 A 
ATOM     16  C   UNL d   1      21.790 -22.521  25.155  0.00  0.00     0.019 A 
ATOM     17  C   UNL d   1      23.166 -22.749  24.960  0.00  0.00     0.002 A 
ATOM     18  C   UNL d   1      24.080 -22.358  25.924  0.00  0.00     0.000 A 
ATOM     19  C   UNL d   1      23.634 -21.738  27.087  0.00  0.00     0.002 A 
ATOM     20  C   UNL d   1      22.269 -21.513  27.283  0.00  0.00     0.019 A 
ENDBRANCH  14  15
ENDBRANCH  13  14
ENDBRANCH   7  13
BRANCH   6  21
ATOM     21  C   UNL d   1      18.593 -18.525  25.717  0.00  0.00     0.318 C 
ATOM     22  O   UNL d   1      18.066 -17.620  26.342  0.00  0.00    -0.262 OA
ENDBRANCH   6  21
TORSDOF 4
