@<TRIPOS>MOLECULE
ligand.pdb
 22 24 0 0 0
SMALL
GASTEIGER

@<TRIPOS>ATOM
      1 N          14.4820  -21.0150   25.2950 N.2     1  UNL1       -0.3547
      2 C          13.9790  -20.6540   26.4870 C.2     1  UNL1        0.3021
      3 N          14.6960  -19.9870   27.3830 N.am    1  UNL1       -0.1313
      4 O          18.0660  -17.6200   26.3420 O.2     1  UNL1       -0.2649
      5 C          15.9700  -19.6500   27.1100 C.2     1  UNL1        0.2753
      6 O          16.6920  -18.9590   28.0570 O.2     1  UNL1       -0.2706
      7 N          17.8910  -19.7290   25.4300 N.am    1  UNL1       -0.2572
      8 C          18.5710  -20.7880   24.6730 C.3     1  UNL1        0.1197
      9 C          17.7290  -21.2350   23.5190 C.3     1  UNL1        0.1361
     10 N          16.2890  -21.0770   23.7130 N.pl3   1  UNL1       -0.2098
     11 C          18.9410  -22.0190   25.5200 C.3     1  UNL1        0.1337
     12 N          19.9270  -21.6630   26.5330 N.pl3   1  UNL1       -0.2358
     13 C          24.0800  -22.3580   25.9240 C.ar    1  UNL1        0.0001
     14 C          23.1660  -22.7490   24.9600 C.ar    1  UNL1        0.0013
     15 C          21.7900  -22.5210   25.1550 C.ar    1  UNL1        0.0161
     16 C          21.3480  -21.9050   26.3160 C.ar    1  UNL1        0.0654
     17 C          22.2690  -21.5130   27.2830 C.ar    1  UNL1        0.0161
     18 C          23.6340  -21.7380   27.0870 C.ar    1  UNL1        0.0013
     19 C          16.5320  -20.0050   25.8520 C.3     1  UNL1        0.2234
     20 C          15.7510  -20.7040   24.9660 C.2     1  UNL1        0.2063
     21 N          12.6190  -21.0030   26.7990 N.pl3   1  UNL1       -0.0763
     22 C          18.5930  -18.5250   25.7170 C.2     1  UNL1        0.3036
@<TRIPOS>BOND
     1     1     2    2
     2     1    20    2
     3     2     3    1
     4     2    21    1
     5     3     5   am
     6     4    22    2
     7     5     6    2
     8     7     8    1
     9     7    19    1
    10     7    22   am
    11     8     9    1
    12     8    11    1
    13     9    10    1
    14    10    20    1
    15    11    12    1
    16    12    16    1
    17    13    14   ar
    18    13    18   ar
    19    14    15   ar
    20    15    16   ar
    21    16    17   ar
    22    17    18   ar
    23    19     5    1
    24    19    20    1
