ligand.pdb
 OpenBabel03221814493D

 22 24  0  0  1  0  0  0  0  0999 V2000
   14.4820  -21.0150   25.2950 N   0  0  0  0  0  0  0  0  0  0  0  0
   13.9790  -20.6540   26.4870 C   0  0  0  0  0  0  0  0  0  0  0  0
   14.6960  -19.9870   27.3830 N   0  0  0  0  0  0  0  0  0  0  0  0
   18.0660  -17.6200   26.3420 O   0  0  0  0  0  0  0  0  0  0  0  0
   15.9700  -19.6500   27.1100 C   0  0  0  0  0  0  0  0  0  0  0  0
   16.6920  -18.9590   28.0570 O   0  0  0  0  0  0  0  0  0  0  0  0
   17.8910  -19.7290   25.4300 N   0  0  0  0  0  0  0  0  0  0  0  0
   18.5710  -20.7880   24.6730 C   0  0  2  0  0  0  0  0  0  0  0  0
   17.7290  -21.2350   23.5190 C   0  0  0  0  0  0  0  0  0  0  0  0
   16.2890  -21.0770   23.7130 N   0  0  0  0  0  0  0  0  0  0  0  0
   18.9410  -22.0190   25.5200 C   0  0  0  0  0  0  0  0  0  0  0  0
   19.9270  -21.6630   26.5330 N   0  0  0  0  0  0  0  0  0  0  0  0
   24.0800  -22.3580   25.9240 C   0  0  0  0  0  0  0  0  0  0  0  0
   23.1660  -22.7490   24.9600 C   0  0  0  0  0  0  0  0  0  0  0  0
   21.7900  -22.5210   25.1550 C   0  0  0  0  0  0  0  0  0  0  0  0
   21.3480  -21.9050   26.3160 C   0  0  0  0  0  0  0  0  0  0  0  0
   22.2690  -21.5130   27.2830 C   0  0  0  0  0  0  0  0  0  0  0  0
   23.6340  -21.7380   27.0870 C   0  0  0  0  0  0  0  0  0  0  0  0
   16.5320  -20.0050   25.8520 C   0  0  1  0  0  0  0  0  0  0  0  0
   15.7510  -20.7040   24.9660 C   0  0  0  0  0  0  0  0  0  0  0  0
   12.6190  -21.0030   26.7990 N   0  0  0  0  0  0  0  0  0  0  0  0
   18.5930  -18.5250   25.7170 C   0  0  0  0  0  0  0  0  0  0  0  0
  1  2  2  0  0  0  0
  1 20  2  0  0  0  0
  2  3  1  0  0  0  0
  2 21  1  0  0  0  0
  3  5  1  0  0  0  0
  4 22  2  0  0  0  0
  5  6  2  0  0  0  0
  7  8  1  0  0  0  0
  7 19  1  0  0  0  0
  7 22  1  0  0  0  0
  8  9  1  0  0  0  0
  8 11  1  1  0  0  0
  9 10  1  0  0  0  0
 10 20  1  0  0  0  0
 11 12  1  0  0  0  0
 12 16  1  0  0  0  0
 13 14  2  0  0  0  0
 13 18  1  0  0  0  0
 14 15  1  0  0  0  0
 15 16  2  0  0  0  0
 16 17  1  0  0  0  0
 17 18  2  0  0  0  0
 19  5  1  1  0  0  0
 19 20  1  0  0  0  0
M  END
>  <HEADER>
    RNA                                     08-JUN-11   3SD3              

>  <TITLE>
    THE STRUCTURE OF THE TETRAHYDROFOLATE RIBOSWITCH CONTAINING A U25C    
   2 MUTATION                                                             

>  <COMPND>
    MOL_ID: 1;                                                            
   2 MOLECULE: TETRAHYDROFOLATE RIBOSWITCH;                               
   3 CHAIN: A;                                                            
   4 ENGINEERED: YES                                                      

>  <SOURCE>
    MOL_ID: 1;                                                            
   2 SYNTHETIC: YES;                                                      
   3 OTHER_DETAILS: SYNTHESIZED FROM T7 RNA POLYMERASE USING A            
   4 RECOMBINANT PCR TEMPLATE                                             

>  <KEYWDS>
    TETRAHYDROFOLATE RNA RIBOSWITCH, RNA                                  

>  <EXPDTA>
    X-RAY DIFFRACTION                                                     

>  <AUTHOR>
    F.E.REYES,J.J.TRAUSCH,P.CERES,R.T.BATEY                               

>  <REVDAT>
   3   02-NOV-11 3SD3    1       JRNL                                     
   2   28-SEP-11 3SD3    1       JRNL                                     
   1   21-SEP-11 3SD3    0                                                

>  <JRNL>
      AUTH   J.J.TRAUSCH,P.CERES,F.E.REYES,R.T.BATEY                      
      TITL   THE STRUCTURE OF A TETRAHYDROFOLATE-SENSING RIBOSWITCH       
      TITL 2 REVEALS TWO LIGAND BINDING SITES IN A SINGLE APTAMER.        
      REF    STRUCTURE                     V.  19  1413 2011              
      REFN                   ISSN 0969-2126                               
      PMID   21906956                                                     
      DOI    10.1016/J.STR.2011.06.019                                    

>  <REMARK>
   2                                                                      
   2 RESOLUTION.    1.95 ANGSTROMS.                                       
   3                                                                      
   3 REFINEMENT.                                                          
   3   PROGRAM     : PHENIX (PHENIX.REFINE: DEV_572)                      
   3   AUTHORS     : PAUL ADAMS,PAVEL AFONINE,VICENT CHEN,IAN             
   3               : DAVIS,KRESHNA GOPAL,RALF GROSSE-                     
   3               : KUNSTLEVE,LI-WEI HUNG,ROBERT IMMORMINO,              
   3               : TOM IOERGER,AIRLIE MCCOY,ERIK MCKEE,NIGEL            
   3               : MORIARTY,REETAL PAI,RANDY READ,JANE                  
   3               : RICHARDSON,DAVID RICHARDSON,TOD ROMO,JIM             
   3               : SACCHETTINI,NICHOLAS SAUTER,JACOB SMITH,             
   3               : LAURENT STORONI,TOM TERWILLIGER,PETER                
   3               : ZWART                                                
   3                                                                      
   3    REFINEMENT TARGET : ML                                            
   3                                                                      
   3  DATA USED IN REFINEMENT.                                            
   3   RESOLUTION RANGE HIGH (ANGSTROMS) : 1.95                           
   3   RESOLUTION RANGE LOW  (ANGSTROMS) : 62.90                          
   3   MIN(FOBS/SIGMA_FOBS)              : 0.230                          
   3   COMPLETENESS FOR RANGE        (%) : 96.2                           
   3   NUMBER OF REFLECTIONS             : 22038                          
   3                                                                      
   3  FIT TO DATA USED IN REFINEMENT.                                     
   3   R VALUE     (WORKING + TEST SET) : 0.231                           
   3   R VALUE            (WORKING SET) : 0.229                           
   3   FREE R VALUE                     : 0.243                           
   3   FREE R VALUE TEST SET SIZE   (%) : 8.900                           
   3   FREE R VALUE TEST SET COUNT      : 1962                            
   3                                                                      
   3  FIT TO DATA USED IN REFINEMENT (IN BINS).                           
   3   BIN  RESOLUTION RANGE  COMPL.    NWORK NFREE   RWORK  RFREE        
   3     1 62.9551 -  4.6896    0.96     1580   153  0.1815 0.1872        
   3     2  4.6896 -  3.7224    0.98     1526   150  0.1734 0.1774        
   3     3  3.7224 -  3.2519    0.98     1476   144  0.2138 0.2445        
   3     4  3.2519 -  2.9545    0.98     1466   143  0.2300 0.2263        
   3     5  2.9545 -  2.7428    0.98     1442   141  0.2772 0.3052        
   3     6  2.7428 -  2.5811    0.99     1498   148  0.2952 0.3083        
   3     7  2.5811 -  2.4518    0.97     1413   137  0.2806 0.3270        
   3     8  2.4518 -  2.3451    0.98     1466   143  0.2838 0.2365        
   3     9  2.3451 -  2.2548    0.95     1378   133  0.3031 0.3919        
   3    10  2.2548 -  2.1770    0.97     1438   140  0.3083 0.3194        
   3    11  2.1770 -  2.1089    0.96     1377   136  0.3108 0.3372        
   3    12  2.1089 -  2.0486    0.91     1354   129  0.3155 0.3266        
   3    13  2.0486 -  1.9947    0.94     1368   136  0.3231 0.3351        
   3    14  1.9947 -  1.9500    0.90     1294   129  0.3460 0.3751        
   3                                                                      
   3  BULK SOLVENT MODELLING.                                             
   3   METHOD USED        : FLAT BULK SOLVENT MODEL                       
   3   SOLVENT RADIUS     : 1.00                                          
   3   SHRINKAGE RADIUS   : 0.72                                          
   3   K_SOL              : 0.36                                          
   3   B_SOL              : 25.26                                         
   3                                                                      
   3  ERROR ESTIMATES.                                                    
   3   COORDINATE ERROR (MAXIMUM-LIKELIHOOD BASED)     : 0.320            
   3   PHASE ERROR (DEGREES, MAXIMUM-LIKELIHOOD BASED) : NULL             
   3                                                                      
   3  B VALUES.                                                           
   3   FROM WILSON PLOT           (A**2) : NULL                           
   3   MEAN B VALUE      (OVERALL, A**2) : 40.19                          
   3   OVERALL ANISOTROPIC B VALUE.                                       
   3    B11 (A**2) : 17.92890                                             
   3    B22 (A**2) : -6.98430                                             
   3    B33 (A**2) : 10.38560                                             
   3    B12 (A**2) : -0.00000                                             
   3    B13 (A**2) : 0.00000                                              
   3    B23 (A**2) : -0.00000                                             
   3                                                                      
   3  TWINNING INFORMATION.                                               
   3   FRACTION: NULL                                                     
   3   OPERATOR: NULL                                                     
   3                                                                      
   3  DEVIATIONS FROM IDEAL VALUES.                                       
   3                 RMSD          COUNT                                  
   3   BOND      :  0.002           2196                                  
   3   ANGLE     :  0.502           3448                                  
   3   CHIRALITY :  0.052            446                                  
   3   PLANARITY :  0.004             92                                  
   3   DIHEDRAL  : 16.272           1076                                  
   3                                                                      
   3  TLS DETAILS                                                         
   3   NUMBER OF TLS GROUPS  : 5                                          
   3   TLS GROUP : 1                                                      
   3    SELECTION: CHAIN A AND RESID 1:18                                 
   3    ORIGIN FOR THE GROUP (A):  10.3440 -16.9718  15.3993              
   3    T TENSOR                                                          
   3      T11:   0.5477 T22:   0.3848                                     
   3      T33:   0.3606 T12:   0.3889                                     
   3      T13:  -0.0878 T23:   0.1061                                     
   3    L TENSOR                                                          
   3      L11:   0.4674 L22:   0.8952                                     
   3      L33:   0.1934 L12:  -0.0090                                     
   3      L13:   0.0911 L23:  -0.1448                                     
   3    S TENSOR                                                          
   3      S11:   0.0217 S12:   0.0466 S13:   0.1102                       
   3      S21:  -0.0114 S22:  -0.0504 S23:  -0.1216                       
   3      S31:   0.0466 S32:  -0.0159 S33:  -0.0339                       
   3   TLS GROUP : 2                                                      
   3    SELECTION: CHAIN A AND RESID 19:35                                
   3    ORIGIN FOR THE GROUP (A):   6.5979  -1.6680  28.7864              
   3    T TENSOR                                                          
   3      T11:   0.1661 T22:   0.2392                                     
   3      T33:   0.1135 T12:   0.1012                                     
   3      T13:   0.0083 T23:   0.0744                                     
   3    L TENSOR                                                          
   3      L11:   0.0183 L22:   0.5624                                     
   3      L33:   0.2209 L12:   0.0147                                     
   3      L13:  -0.0414 L23:  -0.2874                                     
   3    S TENSOR                                                          
   3      S11:   0.0364 S12:   0.0959 S13:   0.0436                       
   3      S21:   0.0583 S22:  -0.0355 S23:  -0.0026                       
   3      S31:  -0.0987 S32:  -0.0669 S33:  -0.0613                       
   3   TLS GROUP : 3                                                      
   3    SELECTION: CHAIN A AND RESID 36:55                                
   3    ORIGIN FOR THE GROUP (A):  10.1873 -10.5908  31.2087              
   3    T TENSOR                                                          
   3      T11:   0.3103 T22:   0.3430                                     
   3      T33:   0.2366 T12:   0.0852                                     
   3      T13:   0.0260 T23:   0.0531                                     
   3    L TENSOR                                                          
   3      L11:   0.3150 L22:   0.2918                                     
   3      L33:   0.5082 L12:  -0.0262                                     
   3      L13:   0.2115 L23:  -0.3101                                     
   3    S TENSOR                                                          
   3      S11:   0.0009 S12:   0.2221 S13:   0.1773                       
   3      S21:   0.1746 S22:  -0.0265 S23:  -0.0070                       
   3      S31:  -0.1278 S32:   0.1289 S33:  -0.1134                       
   3   TLS GROUP : 4                                                      
   3    SELECTION: CHAIN A AND RESID 56:71                                
   3    ORIGIN FOR THE GROUP (A):   2.3964   9.1789   7.5665              
   3    T TENSOR                                                          
   3      T11:   0.0521 T22:   0.3438                                     
   3      T33:   0.2286 T12:   0.1873                                     
   3      T13:  -0.0596 T23:   0.2725                                     
   3    L TENSOR                                                          
   3      L11:   0.0160 L22:   0.0237                                     
   3      L33:   0.0127 L12:   0.0034                                     
   3      L13:   0.0083 L23:  -0.0077                                     
   3    S TENSOR                                                          
   3      S11:  -0.0019 S12:  -0.0066 S13:  -0.0354                       
   3      S21:   0.0539 S22:  -0.0046 S23:  -0.0027                       
   3      S31:   0.0989 S32:   0.1005 S33:  -0.0113                       
   3   TLS GROUP : 5                                                      
   3    SELECTION: CHAIN A AND RESID 72:89                                
   3    ORIGIN FOR THE GROUP (A):  13.4808 -30.0767  18.0629              
   3    T TENSOR                                                          
   3      T11:   0.6521 T22:   0.3141                                     
   3      T33:   0.2361 T12:   0.3776                                     
   3      T13:  -0.0321 T23:   0.0047                                     
   3    L TENSOR                                                          
   3      L11:   0.0984 L22:   0.1119                                     
   3      L33:   0.1029 L12:   0.0402                                     
   3      L13:   0.0728 L23:  -0.0304                                     
   3    S TENSOR                                                          
   3      S11:  -0.0016 S12:   0.1236 S13:   0.0742                       
   3      S21:  -0.1480 S22:  -0.1060 S23:   0.0306                       
   3      S31:   0.1393 S32:   0.0649 S33:  -0.0871                       
   3                                                                      
   3  NCS DETAILS                                                         
   3   NUMBER OF NCS GROUPS : NULL                                        
   3                                                                      
   3  OTHER REFINEMENT REMARKS: NULL                                      
   4                                                                      
   4 3SD3 COMPLIES WITH FORMAT V. 3.30, 13-JUL-11                         
 100                                                                      
 100 THIS ENTRY HAS BEEN PROCESSED BY RCSB ON 15-JUN-11.                  
 100 THE RCSB ID CODE IS RCSB066056.                                      
 200                                                                      
 200 EXPERIMENTAL DETAILS                                                 
 200  EXPERIMENT TYPE                : X-RAY DIFFRACTION                  
 200  DATE OF DATA COLLECTION        : 04-DEC-10                          
 200  TEMPERATURE           (KELVIN) : 100                                
 200  PH                             : 7.0                                
 200  NUMBER OF CRYSTALS USED        : 1                                  
 200                                                                      
 200  SYNCHROTRON              (Y/N) : Y                                  
 200  RADIATION SOURCE               : ALS                                
 200  BEAMLINE                       : 5.0.2                              
 200  X-RAY GENERATOR MODEL          : NULL                               
 200  MONOCHROMATIC OR LAUE    (M/L) : NULL                               
 200  WAVELENGTH OR RANGE        (A) : 1.1051                             
 200  MONOCHROMATOR                  : NULL                               
 200  OPTICS                         : NULL                               
 200                                                                      
 200  DETECTOR TYPE                  : CCD                                
 200  DETECTOR MANUFACTURER          : ADSC QUANTUM 315R                  
 200  INTENSITY-INTEGRATION SOFTWARE : XSCALE                             
 200  DATA SCALING SOFTWARE          : SCALA                              
 200                                                                      
 200  NUMBER OF UNIQUE REFLECTIONS   : 22136                              
 200  RESOLUTION RANGE HIGH      (A) : 1.950                              
 200  RESOLUTION RANGE LOW       (A) : 62.922                             
 200  REJECTION CRITERIA  (SIGMA(I)) : 2.000                              
 200                                                                      
 200 OVERALL.                                                             
 200  COMPLETENESS FOR RANGE     (%) : 98.1                               
 200  DATA REDUNDANCY                : 3.500                              
 200  R MERGE                    (I) : NULL                               
 200  R SYM                      (I) : 0.02700                            
 200  <I/SIGMA(I)> FOR THE DATA SET  : 20.2000                            
 200                                                                      
 200 IN THE HIGHEST RESOLUTION SHELL.                                     
 200  HIGHEST RESOLUTION SHELL, RANGE HIGH (A) : 1.95                     
 200  HIGHEST RESOLUTION SHELL, RANGE LOW  (A) : 2.01                     
 200  COMPLETENESS FOR SHELL     (%) : 98.0                               
 200  DATA REDUNDANCY IN SHELL       : 3.70                               
 200  R MERGE FOR SHELL          (I) : 0.45600                            
 200  R SYM FOR SHELL            (I) : 0.45600                            
 200  <I/SIGMA(I)> FOR SHELL         : 1.700                              
 200                                                                      
 200 DIFFRACTION PROTOCOL: SINGLE WAVELENGTH                              
 200 METHOD USED TO DETERMINE THE STRUCTURE: SAD                          
 200 SOFTWARE USED: PHASER                                                
 200 STARTING MODEL: NULL                                                 
 200                                                                      
 200 REMARK: NULL                                                         
 280                                                                      
 280 CRYSTAL                                                              
 280 SOLVENT CONTENT, VS   (%): 52.43                                     
 280 MATTHEWS COEFFICIENT, VM (ANGSTROMS**3/DA): 2.59                     
 280                                                                      
 280 CRYSTALLIZATION CONDITIONS: 2,4-METHYL-PENTANEDIOL, SPERMINE,        
 280  SODIUM CACODYLATE, SODIUM CHLORIDE, DITHIOTHREITOL, PH 7.0, VAPOR   
 280  DIFFUSION, HANGING DROP, TEMPERATURE 303K                           
 290                                                                      
 290 CRYSTALLOGRAPHIC SYMMETRY                                            
 290 SYMMETRY OPERATORS FOR SPACE GROUP: P 21 21 21                       
 290                                                                      
 290      SYMOP   SYMMETRY                                                
 290     NNNMMM   OPERATOR                                                
 290       1555   X,Y,Z                                                   
 290       2555   -X+1/2,-Y,Z+1/2                                         
 290       3555   -X,Y+1/2,-Z+1/2                                         
 290       4555   X+1/2,-Y+1/2,-Z                                         
 290                                                                      
 290     WHERE NNN -> OPERATOR NUMBER                                     
 290           MMM -> TRANSLATION VECTOR                                  
 290                                                                      
 290 CRYSTALLOGRAPHIC SYMMETRY TRANSFORMATIONS                            
 290 THE FOLLOWING TRANSFORMATIONS OPERATE ON THE ATOM/HETATM             
 290 RECORDS IN THIS ENTRY TO PRODUCE CRYSTALLOGRAPHICALLY                
 290 RELATED MOLECULES.                                                   
 290   SMTRY1   1  1.000000  0.000000  0.000000        0.00000            
 290   SMTRY2   1  0.000000  1.000000  0.000000        0.00000            
 290   SMTRY3   1  0.000000  0.000000  1.000000        0.00000            
 290   SMTRY1   2 -1.000000  0.000000  0.000000       13.76000            
 290   SMTRY2   2  0.000000 -1.000000  0.000000        0.00000            
 290   SMTRY3   2  0.000000  0.000000  1.000000       79.04000            
 290   SMTRY1   3 -1.000000  0.000000  0.000000        0.00000            
 290   SMTRY2   3  0.000000  1.000000  0.000000       34.29500            
 290   SMTRY3   3  0.000000  0.000000 -1.000000       79.04000            
 290   SMTRY1   4  1.000000  0.000000  0.000000       13.76000            
 290   SMTRY2   4  0.000000 -1.000000  0.000000       34.29500            
 290   SMTRY3   4  0.000000  0.000000 -1.000000        0.00000            
 290                                                                      
 290 REMARK: NULL                                                         
 300                                                                      
 300 BIOMOLECULE: 1                                                       
 300 SEE REMARK 350 FOR THE AUTHOR PROVIDED AND/OR PROGRAM                
 300 GENERATED ASSEMBLY INFORMATION FOR THE STRUCTURE IN                  
 300 THIS ENTRY. THE REMARK MAY ALSO PROVIDE INFORMATION ON               
 300 BURIED SURFACE AREA.                                                 
 350                                                                      
 350 COORDINATES FOR A COMPLETE MULTIMER REPRESENTING THE KNOWN           
 350 BIOLOGICALLY SIGNIFICANT OLIGOMERIZATION STATE OF THE                
 350 MOLECULE CAN BE GENERATED BY APPLYING BIOMT TRANSFORMATIONS          
 350 GIVEN BELOW.  BOTH NON-CRYSTALLOGRAPHIC AND                          
 350 CRYSTALLOGRAPHIC OPERATIONS ARE GIVEN.                               
 350                                                                      
 350 BIOMOLECULE: 1                                                       
 350 AUTHOR DETERMINED BIOLOGICAL UNIT: MONOMERIC                         
 350 SOFTWARE DETERMINED QUATERNARY STRUCTURE: MONOMERIC                  
 350 SOFTWARE USED: PISA                                                  
 350 APPLY THE FOLLOWING TO CHAINS: A                                     
 350   BIOMT1   1  1.000000  0.000000  0.000000        0.00000            
 350   BIOMT2   1  0.000000  1.000000  0.000000        0.00000            
 350   BIOMT3   1  0.000000  0.000000  1.000000        0.00000            
 500                                                                      
 500 GEOMETRY AND STEREOCHEMISTRY                                         
 500 SUBTOPIC: CLOSE CONTACTS IN SAME ASYMMETRIC UNIT                     
 500                                                                      
 500 THE FOLLOWING ATOMS ARE IN CLOSE CONTACT.                            
 500                                                                      
 500  ATM1  RES C  SSEQI   ATM2  RES C  SSEQI           DISTANCE          
 500   O    HOH A   161     O    HOH A   173              2.03            
 500                                                                      
 500 REMARK: NULL                                                         
 610                                                                      
 610 MISSING HETEROATOM                                                   
 610 THE FOLLOWING RESIDUES HAVE MISSING ATOMS (M=MODEL NUMBER;           
 610 RES=RESIDUE NAME; C=CHAIN IDENTIFIER; SSEQ=SEQUENCE NUMBER;          
 610 I=INSERTION CODE):                                                   
 610   M RES C SSEQI                                                      
 610     FOZ A 3631                                                       
 615                                                                      
 615 ZERO OCCUPANCY ATOM                                                  
 615 THE FOLLOWING RESIDUES HAVE ATOMS MODELED WITH ZERO                  
 615 OCCUPANCY. THE LOCATION AND PROPERTIES OF THESE ATOMS                
 615 MAY NOT BE RELIABLE. (M=MODEL NUMBER; RES=RESIDUE NAME;              
 615 C=CHAIN IDENTIFIER; SSEQ=SEQUENCE NUMBER; I=INSERTION CODE):         
 615   M RES C SSEQI                                                      
 615     IRI A   90                                                       
 615     IRI A   93                                                       
 615     IRI A   94                                                       
 800                                                                      
 800 SITE                                                                 
 800 SITE_IDENTIFIER: AC1                                                 
 800 EVIDENCE_CODE: SOFTWARE                                              
 800 SITE_DESCRIPTION: BINDING SITE FOR RESIDUE IRI A 90                  
 800                                                                      
 800 SITE_IDENTIFIER: AC2                                                 
 800 EVIDENCE_CODE: SOFTWARE                                              
 800 SITE_DESCRIPTION: BINDING SITE FOR RESIDUE IRI A 91                  
 800                                                                      
 800 SITE_IDENTIFIER: AC3                                                 
 800 EVIDENCE_CODE: SOFTWARE                                              
 800 SITE_DESCRIPTION: BINDING SITE FOR RESIDUE IRI A 92                  
 800                                                                      
 800 SITE_IDENTIFIER: AC4                                                 
 800 EVIDENCE_CODE: SOFTWARE                                              
 800 SITE_DESCRIPTION: BINDING SITE FOR RESIDUE IRI A 93                  
 800                                                                      
 800 SITE_IDENTIFIER: AC5                                                 
 800 EVIDENCE_CODE: SOFTWARE                                              
 800 SITE_DESCRIPTION: BINDING SITE FOR RESIDUE IRI A 94                  
 800                                                                      
 800 SITE_IDENTIFIER: AC6                                                 
 800 EVIDENCE_CODE: SOFTWARE                                              
 800 SITE_DESCRIPTION: BINDING SITE FOR RESIDUE FOZ A 3631                
 900                                                                      
 900 RELATED ENTRIES                                                      
 900 RELATED ID: 3SD1   RELATED DB: PDB                                   

>  <DBREF>
 3SD3 A    1    89  PDB    3SD3     3SD3             1     89             

>  <SEQRES>
   1 A   89    G   G   A   G   A   G   U   A   G   A   U   G   A          
   2 A   89    U   U   C   G   C   G   U   U   A   A   G   C   G          
   3 A   89    U   G   U   G   U   G   A   A   U   G   G   G   A          
   4 A   89    U   G   U   C   G   U   C   A   C   A   C   A   A          
   5 A   89    C   G   A   A   G   C   G   A   G   A   G   C   G          
   6 A   89    C   G   G   U   G   A   A   U   C   A   U   U   G          
   7 A   89    C   A   U   C   C   G   C   U   C   C   A                  

>  <HET>
 IRI  A  90       7                                                       
 IRI  A  91       7                                                       
 IRI  A  92       7                                                       
 IRI  A  93       7                                                       
 IRI  A  94       7                                                       
 FOZ  A3631      22                                                       

>  <HETNAM>
     IRI IRIDIUM HEXAMMINE ION                                            
     FOZ N-[4-({[(6S)-2-AMINO-5-FORMYL-4-OXO-1,4,5,6,7,8-                 
   2 FOZ  HEXAHYDROPTERIDIN-6-YL]METHYL}AMINO)BENZOYL]-L-                 
   3 FOZ  GLUTAMIC ACID                                                   

>  <FORMUL>
   2  IRI    5(H18 IR N6 3+)                                              
   7  FOZ    C20 H23 N7 O7                                                
   8  HOH   *103(H2 O)                                                    

>  <SITE>
   1 AC1  2   G A  61    A A  62                                          
   1 AC2  5   G A   9    A A  72  HOH A 101  HOH A 120                    
   2 AC2  5 HOH A 134                                                     
   1 AC3  8   U A   7    G A   9    U A  77    G A  78                    
   2 AC3  8 HOH A 104  HOH A 120  HOH A 125  HOH A 166                    
   1 AC4  5   G A  32    A A  33    U A  42  HOH A 123                    
   2 AC4  5 HOH A 131                                                     
   1 AC5  4   U A  29    G A  30    U A  31  HOH A 188                    
   1 AC6  7   U A   7    A A   8    U A  35    U A  42                    
   2 AC6  7   G A  44    C A  79    A A  80                               

>  <ORIGX1>
      1.000000  0.000000  0.000000        0.00000                         

>  <ORIGX2>
      0.000000  1.000000  0.000000        0.00000                         

>  <ORIGX3>
      0.000000  0.000000  1.000000        0.00000                         

>  <SCALE1>
      0.036337  0.000000  0.000000        0.00000                         

>  <SCALE2>
      0.000000  0.014579  0.000000        0.00000                         

>  <SCALE3>
      0.000000  0.000000  0.006326        0.00000                         

$$$$
