@<TRIPOS>MOLECULE
2GUN_SPM_B_521
 40 39 0 0 0
SMALL
GASTEIGER

@<TRIPOS>ATOM
      1 N          -2.2429    2.4542    0.5780 N.3     1  UNL1       -0.3299
      2 C          -3.4920    1.7006    0.5628 C.3     1  UNL1       -0.0058
      3 C          -4.0231    1.6252   -0.8676 C.3     1  UNL1       -0.0281
      4 C          -5.4042    0.9674   -0.9415 C.3     1  UNL1       -0.0030
      5 N          -5.3182   -0.4934   -0.9162 N.3     1  UNL1       -0.3159
      6 C          -5.1901   -1.0713   -2.2570 C.3     1  UNL1       -0.0041
      7 C          -5.6567   -2.5326   -2.2824 C.3     1  UNL1       -0.0393
      8 C          -4.5905   -3.5039   -1.7662 C.3     1  UNL1       -0.0393
      9 C          -5.1726   -4.8879   -1.4719 C.3     1  UNL1       -0.0041
     10 N          -5.8257   -4.8988   -0.1621 N.3     1  UNL1       -0.3159
     11 C          -6.5499   -6.1523    0.0417 C.3     1  UNL1       -0.0030
     12 C          -7.1949   -6.1711    1.4288 C.3     1  UNL1       -0.0281
     13 C          -7.9724   -7.4725    1.6422 C.3     1  UNL1       -0.0058
     14 N          -8.5307   -7.5458    2.9887 N.3     1  UNL1       -0.3299
     15 H          -1.4899    1.8658    0.9305 H       1  UNL1        0.1182
     16 H          -2.3202    3.2332    1.2311 H       1  UNL1        0.1182
     17 H          -4.2194    2.1938    1.2163 H       1  UNL1        0.0422
     18 H          -3.3164    0.6946    0.9584 H       1  UNL1        0.0422
     19 H          -4.1105    2.6395   -1.2781 H       1  UNL1        0.0290
     20 H          -3.3086    1.0918   -1.5070 H       1  UNL1        0.0290
     21 H          -6.0174    1.2924   -0.0930 H       1  UNL1        0.0424
     22 H          -5.9304    1.3230   -1.8354 H       1  UNL1        0.0424
     23 H          -6.1485   -0.8665   -0.4579 H       1  UNL1        0.1219
     24 H          -5.7876   -0.5143   -2.9884 H       1  UNL1        0.0424
     25 H          -4.1451   -1.0093   -2.5831 H       1  UNL1        0.0424
     26 H          -6.5903   -2.6403   -1.7169 H       1  UNL1        0.0278
     27 H          -5.8996   -2.7974   -3.3200 H       1  UNL1        0.0278
     28 H          -3.8131   -3.6086   -2.5332 H       1  UNL1        0.0278
     29 H          -4.0928   -3.1001   -0.8767 H       1  UNL1        0.0278
     30 H          -5.8784   -5.1679   -2.2628 H       1  UNL1        0.0424
     31 H          -4.3607   -5.6236   -1.4854 H       1  UNL1        0.0424
     32 H          -5.1167   -4.8002    0.5645 H       1  UNL1        0.1219
     33 H          -7.3318   -6.2588   -0.7186 H       1  UNL1        0.0424
     34 H          -5.8662   -7.0040   -0.0528 H       1  UNL1        0.0424
     35 H          -6.4210   -6.0749    2.2005 H       1  UNL1        0.0290
     36 H          -7.8759   -5.3178    1.5371 H       1  UNL1        0.0290
     37 H          -8.7899   -7.5459    0.9168 H       1  UNL1        0.0422
     38 H          -7.3168   -8.3359    1.4873 H       1  UNL1        0.0422
     39 H          -7.7910   -7.4094    3.6753 H       1  UNL1        0.1182
     40 H          -9.1948   -6.7838    3.1251 H       1  UNL1        0.1182
@<TRIPOS>BOND
     1     2     1    1
     2     3     2    1
     3     4     3    1
     4     5     4    1
     5     6     5    1
     6     7     6    1
     7     8     7    1
     8     9     8    1
     9    10     9    1
    10    11    10    1
    11    12    11    1
    12    13    12    1
    13    14    13    1
    14     1    15    1
    15     1    16    1
    16     2    17    1
    17     2    18    1
    18     3    19    1
    19     3    20    1
    20     4    21    1
    21     4    22    1
    22     5    23    1
    23     6    24    1
    24     6    25    1
    25     7    26    1
    26     7    27    1
    27     8    28    1
    28     8    29    1
    29     9    30    1
    30     9    31    1
    31    10    32    1
    32    11    33    1
    33    11    34    1
    34    12    35    1
    35    12    36    1
    36    13    37    1
    37    13    38    1
    38    14    39    1
    39    14    40    1
