REMARK  13 active torsions:
REMARK  status: ('A' for Active; 'I' for Inactive)
REMARK    1  A    between atoms: C_2  and  N_1 
REMARK    2  A    between atoms: C_3  and  C_2 
REMARK    3  A    between atoms: C_4  and  C_3 
REMARK    4  A    between atoms: N_5  and  C_4 
REMARK    5  A    between atoms: C_6  and  N_5 
REMARK    6  A    between atoms: C_7  and  C_6 
REMARK    7  A    between atoms: C_8  and  C_7 
REMARK    8  A    between atoms: C_9  and  C_8 
REMARK    9  A    between atoms: N_10  and  C_9 
REMARK   10  A    between atoms: C_11  and  N_10 
REMARK   11  A    between atoms: C_12  and  C_11 
REMARK   12  A    between atoms: C_13  and  C_12 
REMARK   13  A    between atoms: N_14  and  C_13 
ROOT
ATOM      1  C   UNL d   1      -5.657  -2.533  -2.282  0.00  0.00     0.032 C 
ENDROOT
BRANCH   1   2
ATOM      2  C   UNL d   1      -5.190  -1.071  -2.257  0.00  0.00     0.269 C 
BRANCH   2   3
ATOM      3  N   UNL d   1      -5.318  -0.493  -0.916  0.00  0.00     0.083 N 
ATOM      4  H   UNL d   1      -6.149  -0.867  -0.458  0.00  0.00     0.315 HD
BRANCH   3   5
ATOM      5  C   UNL d   1      -5.404   0.967  -0.942  0.00  0.00     0.271 C 
BRANCH   5   6
ATOM      6  C   UNL d   1      -4.023   1.625  -0.868  0.00  0.00     0.059 C 
BRANCH   6   7
ATOM      7  C   UNL d   1      -3.492   1.701   0.563  0.00  0.00     0.268 C 
BRANCH   7   8
ATOM      8  N   UNL d   1      -2.243   2.454   0.578  0.00  0.00     0.078 N 
ATOM      9  H   UNL d   1      -1.490   1.866   0.930  0.00  0.00     0.312 HD
ATOM     10  H   UNL d   1      -2.320   3.233   1.231  0.00  0.00     0.312 HD
ENDBRANCH   7   8
ENDBRANCH   6   7
ENDBRANCH   5   6
ENDBRANCH   3   5
ENDBRANCH   2   3
ENDBRANCH   1   2
BRANCH   1  11
ATOM     11  C   UNL d   1      -4.590  -3.504  -1.766  0.00  0.00     0.032 C 
BRANCH  11  12
ATOM     12  C   UNL d   1      -5.173  -4.888  -1.472  0.00  0.00     0.269 C 
BRANCH  12  13
ATOM     13  N   UNL d   1      -5.826  -4.899  -0.162  0.00  0.00     0.083 N 
ATOM     14  H   UNL d   1      -5.117  -4.800   0.565  0.00  0.00     0.315 HD
BRANCH  13  15
ATOM     15  C   UNL d   1      -6.550  -6.152   0.042  0.00  0.00     0.271 C 
BRANCH  15  16
ATOM     16  C   UNL d   1      -7.195  -6.171   1.429  0.00  0.00     0.059 C 
BRANCH  16  17
ATOM     17  C   UNL d   1      -7.972  -7.473   1.642  0.00  0.00     0.268 C 
BRANCH  17  18
ATOM     18  N   UNL d   1      -8.531  -7.546   2.989  0.00  0.00     0.078 N 
ATOM     19  H   UNL d   1      -7.791  -7.409   3.675  0.00  0.00     0.312 HD
ATOM     20  H   UNL d   1      -9.195  -6.784   3.125  0.00  0.00     0.312 HD
ENDBRANCH  17  18
ENDBRANCH  16  17
ENDBRANCH  15  16
ENDBRANCH  13  15
ENDBRANCH  12  13
ENDBRANCH  11  12
ENDBRANCH   1  11
TORSDOF 13
