@<TRIPOS>MOLECULE
3LA5_5AZ_A_84
 12 12 0 0 0
SMALL
GASTEIGER

@<TRIPOS>ATOM
      1 C          -1.3338   -0.9837    0.3744 C.ar    1  UNL1        0.3497
      2 O          -1.8999   -2.0332    0.6754 O.2     1  UNL1       -0.2446
      3 N           0.0218   -0.9665    0.0782 N.ar    1  UNL1       -0.2789
      4 H           0.5213   -1.8481    0.1372 H       1  UNL1        0.1731
      5 C           0.6937    0.2103   -0.2146 C.ar    1  UNL1        0.1955
      6 N           0.0151    1.3154   -0.3534 N.ar    1  UNL1       -0.2046
      7 C          -1.3195    1.2822   -0.0213 C.ar    1  UNL1        0.1249
      8 N          -1.9951    0.2234    0.3009 N.ar    1  UNL1       -0.1815
      9 N           2.0473    0.1301   -0.4923 N.pl3   1  UNL1       -0.3288
     10 H          -1.8724    2.2347   -0.0931 H       1  UNL1        0.1050
     11 H           2.6303   -0.3873    0.1650 H       1  UNL1        0.1451
     12 H           2.4812    1.0374   -0.6587 H       1  UNL1        0.1451
@<TRIPOS>BOND
     1     2     1    2
     2     3     1   ar
     3     3     4    1
     4     5     3   ar
     5     6     5   ar
     6     7     6   ar
     7     8     7   ar
     8     8     1   ar
     9     9     5    1
    10     7    10    1
    11     9    11    1
    12     9    12    1
