@<TRIPOS>MOLECULE
2O3X_N30_B_1
 65 67 0 0 0
SMALL
GASTEIGER

@<TRIPOS>ATOM
      1 C           0.4444    2.2142    3.7830 C.3     1  UNL1        0.1776
      2 H           0.8301    1.2332    4.0694 H       1  UNL1        0.0927
      3 O           0.5370    2.3334    2.3616 O.3     1  UNL1       -0.3422
      4 C           1.8309    2.1496    1.7454 C.3     1  UNL1        0.1055
      5 H           1.5945    2.1018    0.6756 H       1  UNL1        0.0639
      6 C           2.5265    0.8024    2.1278 C.3     1  UNL1        0.0355
      7 H           2.8354    0.8409    3.1784 H       1  UNL1        0.0485
      8 C           3.7670    0.6106    1.2521 C.3     1  UNL1       -0.0175
      9 C           4.8030    1.6631    1.6168 C.3     1  UNL1        0.0351
     10 H           5.1306    1.5214    2.6549 H       1  UNL1        0.0485
     11 N           5.9991    1.5449    0.7604 N.3     1  UNL1       -0.3250
     12 C           4.2458    3.0872    1.4435 C.3     1  UNL1        0.0990
     13 H           4.3054    3.2587    0.3744 H       1  UNL1        0.0636
     14 C           2.8062    3.3548    1.9508 C.3     1  UNL1        0.1166
     15 H           2.9134    3.5219    3.0251 H       1  UNL1        0.0650
     16 O           2.2724    4.6277    1.4763 O.3     1  UNL1       -0.3402
     17 C           2.1636    4.8354    0.0636 C.3     1  UNL1        0.1884
     18 H           1.4890    4.0809   -0.3577 H       1  UNL1        0.0938
     19 C           1.6276    6.2490   -0.2164 C.3     1  UNL1        0.1341
     20 H           1.9810    6.9556    0.5450 H       1  UNL1        0.0671
     21 O           0.2054    6.3297   -0.2900 O.3     1  UNL1       -0.3841
     22 C           2.2343    6.5652   -1.5712 C.3     1  UNL1        0.1131
     23 H           2.2990    7.6359   -1.7902 H       1  UNL1        0.0647
     24 O           1.4267    5.9716   -2.6098 O.3     1  UNL1       -0.3864
     25 C           3.5775    5.8603   -1.5227 C.3     1  UNL1        0.1024
     26 H           3.8446    5.4215   -2.4913 H       1  UNL1        0.0636
     27 O           3.4222    4.7658   -0.6072 O.3     1  UNL1       -0.3415
     28 C           4.7209    6.7750   -1.0430 C.3     1  UNL1        0.0222
     29 N           5.9889    6.0574   -0.8493 N.3     1  UNL1       -0.3276
     30 O           5.1641    4.0082    2.0515 O.3     1  UNL1       -0.3876
     31 N           1.6818   -0.3907    1.9687 N.3     1  UNL1       -0.3250
     32 C          -1.0601    2.2629    4.2220 C.3     1  UNL1        0.0853
     33 H          -1.5699    1.4077    3.7612 H       1  UNL1        0.0535
     34 N          -1.7791    3.4745    3.7596 N.3     1  UNL1       -0.3211
     35 C          -1.1263    2.1324    5.7662 C.3     1  UNL1        0.1033
     36 H          -2.1609    2.2916    6.0921 H       1  UNL1        0.0637
     37 O          -0.7676    0.8166    6.1988 O.3     1  UNL1       -0.3874
     38 C          -0.2037    3.1530    6.4645 C.3     1  UNL1        0.1109
     39 H          -0.1504    2.9554    7.5415 H       1  UNL1        0.0646
     40 O          -0.7303    4.4801    6.3044 O.3     1  UNL1       -0.3865
     41 C           1.2189    3.1208    5.8705 C.3     1  UNL1        0.1129
     42 H           1.7523    4.0237    6.1927 H       1  UNL1        0.0647
     43 O           1.1838    3.2326    4.4401 O.3     1  UNL1       -0.3415
     44 C           2.0593    1.9078    6.3300 C.3     1  UNL1        0.0730
     45 O           3.3120    1.8398    5.6554 O.3     1  UNL1       -0.3924
     46 H           3.4916    0.6871    0.1894 H       1  UNL1        0.0297
     47 H           4.1987   -0.3885    1.3939 H       1  UNL1        0.0297
     48 H           5.7469    1.6907   -0.2255 H       1  UNL1        0.1185
     49 H           6.3450    0.5842    0.7949 H       1  UNL1        0.1185
     50 H          -0.1303    5.9234    0.5347 H       1  UNL1        0.2101
     51 H           0.5035    6.1224   -2.3195 H       1  UNL1        0.2100
     52 H           4.8808    7.5715   -1.7775 H       1  UNL1        0.0448
     53 H           4.4649    7.2476   -0.0892 H       1  UNL1        0.0448
     54 H           6.1937    5.4996   -1.6781 H       1  UNL1        0.1183
     55 H           5.8349    5.3704   -0.1040 H       1  UNL1        0.1183
     56 H           6.0546    3.6845    1.8002 H       1  UNL1        0.2100
     57 H           0.8902   -0.3395    2.6055 H       1  UNL1        0.1185
     58 H           2.2148   -1.2144    2.2558 H       1  UNL1        0.1185
     59 H          -1.2619    4.2905    4.1102 H       1  UNL1        0.1187
     60 H          -2.7123    3.5212    4.1673 H       1  UNL1        0.1187
     61 H          -1.0921    0.1665    5.5480 H       1  UNL1        0.2100
     62 H          -1.6272    4.4954    6.6844 H       1  UNL1        0.2100
     63 H           2.2502    1.9717    7.4062 H       1  UNL1        0.0584
     64 H           1.5692    0.9547    6.1405 H       1  UNL1        0.0584
     65 H           3.6019    2.7570    5.4732 H       1  UNL1        0.2095
@<TRIPOS>BOND
     1     1    32    1
     2     1    43    1
     3     1     3    1
     4     1     2    1
     5     4     6    1
     6     4     5    1
     7     4     3    1
     8     6     7    1
     9     6     8    1
    10     6    31    1
    11     8     9    1
    12     8    46    1
    13     8    47    1
    14     9    12    1
    15     9    11    1
    16     9    10    1
    17    11    48    1
    18    11    49    1
    19    12    13    1
    20    12    14    1
    21    12    30    1
    22    14     4    1
    23    14    16    1
    24    14    15    1
    25    16    17    1
    26    17    18    1
    27    17    19    1
    28    17    27    1
    29    19    22    1
    30    19    21    1
    31    19    20    1
    32    21    50    1
    33    22    23    1
    34    22    24    1
    35    22    25    1
    36    24    51    1
    37    25    27    1
    38    25    28    1
    39    25    26    1
    40    28    29    1
    41    28    52    1
    42    28    53    1
    43    29    54    1
    44    29    55    1
    45    30    56    1
    46    31    57    1
    47    31    58    1
    48    32    35    1
    49    32    34    1
    50    32    33    1
    51    34    59    1
    52    34    60    1
    53    35    38    1
    54    35    37    1
    55    35    36    1
    56    37    61    1
    57    38    39    1
    58    38    40    1
    59    38    41    1
    60    40    62    1
    61    41    43    1
    62    41    44    1
    63    41    42    1
    64    44    45    1
    65    44    63    1
    66    44    64    1
    67    45    65    1
