2O3X_N30_B_1
 OpenBabel03221817263D

 65 67  0  0  1  0  0  0  0  0999 V2000
    0.4444    2.2142    3.7830 C   0  0  2  0  0  0  0  0  0  0  0  0
    0.8301    1.2332    4.0694 H   0  0  0  0  0  0  0  0  0  0  0  0
    0.5370    2.3334    2.3616 O   0  0  0  0  0  0  0  0  0  0  0  0
    1.8309    2.1496    1.7454 C   0  0  2  0  0  0  0  0  0  0  0  0
    1.5945    2.1018    0.6756 H   0  0  0  0  0  0  0  0  0  0  0  0
    2.5265    0.8024    2.1278 C   0  0  2  0  0  0  0  0  0  0  0  0
    2.8354    0.8409    3.1784 H   0  0  0  0  0  0  0  0  0  0  0  0
    3.7670    0.6106    1.2521 C   0  0  0  0  0  0  0  0  0  0  0  0
    4.8030    1.6631    1.6168 C   0  0  1  0  0  0  0  0  0  0  0  0
    5.1306    1.5214    2.6549 H   0  0  0  0  0  0  0  0  0  0  0  0
    5.9991    1.5449    0.7604 N   0  0  0  0  0  0  0  0  0  0  0  0
    4.2458    3.0872    1.4435 C   0  0  1  0  0  0  0  0  0  0  0  0
    4.3054    3.2587    0.3744 H   0  0  0  0  0  0  0  0  0  0  0  0
    2.8062    3.3548    1.9508 C   0  0  1  0  0  0  0  0  0  0  0  0
    2.9134    3.5219    3.0251 H   0  0  0  0  0  0  0  0  0  0  0  0
    2.2724    4.6277    1.4763 O   0  0  0  0  0  0  0  0  0  0  0  0
    2.1636    4.8354    0.0636 C   0  0  1  0  0  0  0  0  0  0  0  0
    1.4890    4.0809   -0.3577 H   0  0  0  0  0  0  0  0  0  0  0  0
    1.6276    6.2490   -0.2164 C   0  0  2  0  0  0  0  0  0  0  0  0
    1.9810    6.9556    0.5450 H   0  0  0  0  0  0  0  0  0  0  0  0
    0.2054    6.3297   -0.2900 O   0  0  0  0  0  0  0  0  0  0  0  0
    2.2343    6.5652   -1.5712 C   0  0  2  0  0  0  0  0  0  0  0  0
    2.2990    7.6359   -1.7902 H   0  0  0  0  0  0  0  0  0  0  0  0
    1.4267    5.9716   -2.6098 O   0  0  0  0  0  0  0  0  0  0  0  0
    3.5775    5.8603   -1.5227 C   0  0  2  0  0  0  0  0  0  0  0  0
    3.8446    5.4215   -2.4913 H   0  0  0  0  0  0  0  0  0  0  0  0
    3.4222    4.7658   -0.6072 O   0  0  0  0  0  0  0  0  0  0  0  0
    4.7209    6.7750   -1.0430 C   0  0  0  0  0  0  0  0  0  0  0  0
    5.9889    6.0574   -0.8493 N   0  0  0  0  0  0  0  0  0  0  0  0
    5.1641    4.0082    2.0515 O   0  0  0  0  0  0  0  0  0  0  0  0
    1.6818   -0.3907    1.9687 N   0  0  0  0  0  0  0  0  0  0  0  0
   -1.0601    2.2629    4.2220 C   0  0  2  0  0  0  0  0  0  0  0  0
   -1.5699    1.4077    3.7612 H   0  0  0  0  0  0  0  0  0  0  0  0
   -1.7791    3.4745    3.7596 N   0  0  0  0  0  0  0  0  0  0  0  0
   -1.1263    2.1324    5.7662 C   0  0  1  0  0  0  0  0  0  0  0  0
   -2.1609    2.2916    6.0921 H   0  0  0  0  0  0  0  0  0  0  0  0
   -0.7676    0.8166    6.1988 O   0  0  0  0  0  0  0  0  0  0  0  0
   -0.2037    3.1530    6.4645 C   0  0  2  0  0  0  0  0  0  0  0  0
   -0.1504    2.9554    7.5415 H   0  0  0  0  0  0  0  0  0  0  0  0
   -0.7303    4.4801    6.3044 O   0  0  0  0  0  0  0  0  0  0  0  0
    1.2189    3.1208    5.8705 C   0  0  2  0  0  0  0  0  0  0  0  0
    1.7523    4.0237    6.1927 H   0  0  0  0  0  0  0  0  0  0  0  0
    1.1838    3.2326    4.4401 O   0  0  0  0  0  0  0  0  0  0  0  0
    2.0593    1.9078    6.3300 C   0  0  0  0  0  0  0  0  0  0  0  0
    3.3120    1.8398    5.6554 O   0  0  0  0  0  0  0  0  0  0  0  0
    3.4916    0.6871    0.1894 H   0  0  0  0  0  0  0  0  0  0  0  0
    4.1987   -0.3885    1.3939 H   0  0  0  0  0  0  0  0  0  0  0  0
    5.7469    1.6907   -0.2255 H   0  0  0  0  0  0  0  0  0  0  0  0
    6.3450    0.5842    0.7949 H   0  0  0  0  0  0  0  0  0  0  0  0
   -0.1303    5.9234    0.5347 H   0  0  0  0  0  0  0  0  0  0  0  0
    0.5035    6.1224   -2.3195 H   0  0  0  0  0  0  0  0  0  0  0  0
    4.8808    7.5715   -1.7775 H   0  0  0  0  0  0  0  0  0  0  0  0
    4.4649    7.2476   -0.0892 H   0  0  0  0  0  0  0  0  0  0  0  0
    6.1937    5.4996   -1.6781 H   0  0  0  0  0  0  0  0  0  0  0  0
    5.8349    5.3704   -0.1040 H   0  0  0  0  0  0  0  0  0  0  0  0
    6.0546    3.6845    1.8002 H   0  0  0  0  0  0  0  0  0  0  0  0
    0.8902   -0.3395    2.6055 H   0  0  0  0  0  0  0  0  0  0  0  0
    2.2148   -1.2144    2.2558 H   0  0  0  0  0  0  0  0  0  0  0  0
   -1.2619    4.2905    4.1102 H   0  0  0  0  0  0  0  0  0  0  0  0
   -2.7123    3.5212    4.1673 H   0  0  0  0  0  0  0  0  0  0  0  0
   -1.0921    0.1665    5.5480 H   0  0  0  0  0  0  0  0  0  0  0  0
   -1.6272    4.4954    6.6844 H   0  0  0  0  0  0  0  0  0  0  0  0
    2.2502    1.9717    7.4062 H   0  0  0  0  0  0  0  0  0  0  0  0
    1.5692    0.9547    6.1405 H   0  0  0  0  0  0  0  0  0  0  0  0
    3.6019    2.7570    5.4732 H   0  0  0  0  0  0  0  0  0  0  0  0
  1 32  1  1  0  0  0
  1 43  1  0  0  0  0
  1  3  1  0  0  0  0
  1  2  1  0  0  0  0
  4  6  1  1  0  0  0
  4  5  1  0  0  0  0
  4  3  1  0  0  0  0
  6  7  1  1  0  0  0
  6  8  1  0  0  0  0
  6 31  1  0  0  0  0
  8  9  1  0  0  0  0
  8 46  1  0  0  0  0
  8 47  1  0  0  0  0
  9 12  1  6  0  0  0
  9 11  1  0  0  0  0
  9 10  1  0  0  0  0
 11 48  1  0  0  0  0
 11 49  1  0  0  0  0
 12 13  1  0  0  0  0
 12 14  1  1  0  0  0
 12 30  1  0  0  0  0
 14  4  1  6  0  0  0
 14 16  1  0  0  0  0
 14 15  1  0  0  0  0
 16 17  1  0  0  0  0
 17 18  1  0  0  0  0
 17 19  1  6  0  0  0
 17 27  1  0  0  0  0
 19 22  1  6  0  0  0
 19 21  1  0  0  0  0
 19 20  1  0  0  0  0
 21 50  1  0  0  0  0
 22 23  1  0  0  0  0
 22 24  1  0  0  0  0
 22 25  1  6  0  0  0
 24 51  1  0  0  0  0
 25 27  1  0  0  0  0
 25 28  1  0  0  0  0
 25 26  1  6  0  0  0
 28 29  1  0  0  0  0
 28 52  1  0  0  0  0
 28 53  1  0  0  0  0
 29 54  1  0  0  0  0
 29 55  1  0  0  0  0
 30 56  1  0  0  0  0
 31 57  1  0  0  0  0
 31 58  1  0  0  0  0
 32 35  1  1  0  0  0
 32 34  1  0  0  0  0
 32 33  1  0  0  0  0
 34 59  1  0  0  0  0
 34 60  1  0  0  0  0
 35 38  1  1  0  0  0
 35 37  1  0  0  0  0
 35 36  1  0  0  0  0
 37 61  1  0  0  0  0
 38 39  1  0  0  0  0
 38 40  1  0  0  0  0
 38 41  1  6  0  0  0
 40 62  1  0  0  0  0
 41 43  1  0  0  0  0
 41 44  1  0  0  0  0
 41 42  1  1  0  0  0
 44 45  1  0  0  0  0
 44 63  1  0  0  0  0
 44 64  1  0  0  0  0
 45 65  1  0  0  0  0
M  END
$$$$
