@<TRIPOS>MOLECULE
2ESI_KAN_A_51
 69 71 0 0 0
SMALL
GASTEIGER

@<TRIPOS>ATOM
      1 C           1.7850    0.3817    2.4159 C.3     1  UNL1        0.1883
      2 H           2.8208    0.5683    2.7044 H       1  UNL1        0.0938
      3 C           1.4466    0.9928    1.0481 C.3     1  UNL1        0.1341
      4 H           1.4911    2.0849    1.0955 H       1  UNL1        0.0671
      5 C           2.3386    0.4430   -0.0648 C.3     1  UNL1        0.1140
      6 H           1.7478    0.0249   -0.8891 H       1  UNL1        0.0648
      7 C           3.3089   -0.6078    0.4797 C.3     1  UNL1        0.1109
      8 H           4.1134   -0.1089    1.0382 H       1  UNL1        0.0646
      9 C           2.5938   -1.6327    1.3920 C.3     1  UNL1        0.1023
     10 H           2.0141   -2.3230    0.7715 H       1  UNL1        0.0636
     11 C           3.6372   -2.4656    2.1660 C.3     1  UNL1        0.0222
     12 N           3.0185   -3.2845    3.2098 N.3     1  UNL1       -0.3276
     13 O           1.6602   -1.0374    2.3187 O.3     1  UNL1       -0.3415
     14 O           3.9669   -1.2847   -0.5938 O.3     1  UNL1       -0.3865
     15 O           3.1083    1.5107   -0.6175 O.3     1  UNL1       -0.3864
     16 O           0.0877    0.6719    0.7181 O.3     1  UNL1       -0.3841
     17 O           0.9041    0.9902    3.3647 O.3     1  UNL1       -0.3413
     18 C           1.5564    1.5492    4.5192 C.3     1  UNL1        0.1051
     19 H           2.2243    0.7749    4.9258 H       1  UNL1        0.0639
     20 C           2.3459    2.8371    4.2121 C.3     1  UNL1        0.1104
     21 H           1.6680    3.6644    3.9583 H       1  UNL1        0.0646
     22 C           3.1837    3.1982    5.4578 C.3     1  UNL1        0.1051
     23 H           3.9971    2.4708    5.5698 H       1  UNL1        0.0639
     24 C           2.3171    3.2063    6.7476 C.3     1  UNL1        0.0355
     25 H           2.4744    4.1571    7.2782 H       1  UNL1        0.0485
     26 C           0.8025    3.0658    6.4515 C.3     1  UNL1       -0.0175
     27 C           0.4445    1.8877    5.5301 C.3     1  UNL1        0.0355
     28 H          -0.4716    2.1680    4.9952 H       1  UNL1        0.0485
     29 N           0.0971    0.7188    6.3381 N.3     1  UNL1       -0.3250
     30 N           2.7779    2.1309    7.6312 N.3     1  UNL1       -0.3250
     31 O           3.8004    4.4934    5.3059 O.3     1  UNL1       -0.3413
     32 C           4.9398    4.5214    4.4296 C.3     1  UNL1        0.1874
     33 H           5.3196    3.5093    4.2724 H       1  UNL1        0.0937
     34 C           6.0845    5.3476    5.0286 C.3     1  UNL1        0.1234
     35 H           6.9852    5.1815    4.4264 H       1  UNL1        0.0660
     36 C           5.7604    6.8381    5.0629 C.3     1  UNL1        0.0647
     37 H           5.0242    7.0362    5.8506 H       1  UNL1        0.0512
     38 C           5.2127    7.3056    3.7091 C.3     1  UNL1        0.1012
     39 H           6.0131    7.3054    2.9532 H       1  UNL1        0.0636
     40 C           4.0799    6.3886    3.2277 C.3     1  UNL1        0.1120
     41 H           3.2297    6.4002    3.9288 H       1  UNL1        0.0646
     42 C           3.5588    6.7627    1.8398 C.3     1  UNL1        0.0730
     43 O           2.4955    7.7054    1.9443 O.3     1  UNL1       -0.3924
     44 O           4.6080    5.0560    3.1423 O.3     1  UNL1       -0.3406
     45 O           4.7141    8.6340    3.8357 O.3     1  UNL1       -0.3875
     46 N           6.9653    7.5892    5.3705 N.3     1  UNL1       -0.3229
     47 O           6.3486    4.8809    6.3480 O.3     1  UNL1       -0.3851
     48 O           3.2278    2.6717    3.1123 O.3     1  UNL1       -0.3865
     49 H           4.1591   -3.1304    1.4637 H       1  UNL1        0.0448
     50 H           4.3930   -1.8085    2.6178 H       1  UNL1        0.0448
     51 H           2.6615   -2.6646    3.9371 H       1  UNL1        0.1183
     52 H           3.7415   -3.8498    3.6564 H       1  UNL1        0.1183
     53 H           3.2837   -1.6079   -1.2046 H       1  UNL1        0.2100
     54 H           3.5724    1.9514    0.1167 H       1  UNL1        0.2100
     55 H          -0.0267   -0.2864    0.8457 H       1  UNL1        0.2101
     56 H           0.4795    3.9979    5.9678 H       1  UNL1        0.0297
     57 H           0.2625    3.0266    7.4031 H       1  UNL1        0.0297
     58 H          -0.2631   -0.0158    5.7377 H       1  UNL1        0.1185
     59 H          -0.6765    0.9536    6.9697 H       1  UNL1        0.1185
     60 H           1.9748    1.6062    7.9901 H       1  UNL1        0.1185
     61 H           3.2285    2.5351    8.4439 H       1  UNL1        0.1185
     62 H           4.3460    7.1982    1.2095 H       1  UNL1        0.0584
     63 H           3.1673    5.8797    1.3140 H       1  UNL1        0.0584
     64 H           2.8629    8.5168    2.3369 H       1  UNL1        0.2095
     65 H           4.9965    9.1342    3.0500 H       1  UNL1        0.2100
     66 H           7.4259    7.2102    6.1959 H       1  UNL1        0.1186
     67 H           6.7205    8.5495    5.6120 H       1  UNL1        0.1186
     68 H           6.8941    4.0795    6.2637 H       1  UNL1        0.2101
     69 H           3.0426    3.3751    2.4670 H       1  UNL1        0.2100
@<TRIPOS>BOND
     1     1     2    1
     2     3     1    1
     3     3     4    1
     4     5     3    1
     5     5     6    1
     6     7     5    1
     7     7     8    1
     8     9     7    1
     9     9    10    1
    10    11     9    1
    11    12    11    1
    12    13     9    1
    13    13     1    1
    14    14     7    1
    15    15     5    1
    16    16     3    1
    17    17     1    1
    18    18    17    1
    19    18    19    1
    20    20    18    1
    21    20    21    1
    22    22    20    1
    23    22    23    1
    24    24    22    1
    25    24    25    1
    26    26    24    1
    27    27    26    1
    28    27    28    1
    29    27    18    1
    30    29    27    1
    31    30    24    1
    32    31    22    1
    33    32    31    1
    34    32    33    1
    35    34    32    1
    36    34    35    1
    37    36    34    1
    38    36    37    1
    39    38    36    1
    40    38    39    1
    41    40    38    1
    42    40    41    1
    43    42    40    1
    44    43    42    1
    45    44    40    1
    46    44    32    1
    47    45    38    1
    48    46    36    1
    49    47    34    1
    50    48    20    1
    51    11    49    1
    52    11    50    1
    53    12    51    1
    54    12    52    1
    55    14    53    1
    56    15    54    1
    57    16    55    1
    58    26    56    1
    59    26    57    1
    60    29    58    1
    61    29    59    1
    62    30    60    1
    63    30    61    1
    64    42    62    1
    65    42    63    1
    66    43    64    1
    67    45    65    1
    68    46    66    1
    69    46    67    1
    70    47    68    1
    71    48    69    1
