REMARK  17 active torsions:
REMARK  status: ('A' for Active; 'I' for Inactive)
REMARK    1  A    between atoms: O_12  and  C_1 
REMARK    2  A    between atoms: O_11  and  C_2 
REMARK    3  A    between atoms: O_10  and  C_3 
REMARK    4  A    between atoms: O_9  and  C_4 
REMARK    5  A    between atoms: C_6  and  C_5 
REMARK    6  A    between atoms: N_7  and  C_6 
REMARK    7  A    between atoms: C_13  and  O_12 
REMARK    8  A    between atoms: O_33  and  C_14 
REMARK    9  A    between atoms: O_21  and  C_15 
REMARK   10  A    between atoms: N_20  and  C_16 
REMARK   11  A    between atoms: N_19  and  C_18 
REMARK   12  A    between atoms: C_22  and  O_21 
REMARK   13  A    between atoms: O_32  and  C_23 
REMARK   14  A    between atoms: N_31  and  C_24 
REMARK   15  A    between atoms: O_30  and  C_25 
REMARK   16  A    between atoms: C_27  and  C_26 
REMARK   17  A    between atoms: O_28  and  C_27 
ROOT
ATOM      1  C   UNL d   1       1.556   1.549   4.519  0.00  0.00     0.189 C 
ATOM      2  C   UNL d   1       2.346   2.837   4.212  0.00  0.00     0.180 C 
ATOM      3  C   UNL d   1       3.184   3.198   5.458  0.00  0.00     0.189 C 
ATOM      4  C   UNL d   1       2.317   3.206   6.748  0.00  0.00     0.251 C 
ATOM      5  C   UNL d   1       0.802   3.066   6.452  0.00  0.00     0.076 C 
ATOM      6  C   UNL d   1       0.445   1.888   5.530  0.00  0.00     0.251 C 
ENDROOT
BRANCH   1   7
ATOM      7  O   UNL d   1       0.904   0.990   3.365  0.00  0.00    -0.348 OA
BRANCH   7   8
ATOM      8  C   UNL d   1       1.785   0.382   2.416  0.00  0.00     0.292 C 
ATOM      9  C   UNL d   1       1.447   0.993   1.048  0.00  0.00     0.204 C 
ATOM     10  C   UNL d   1       2.339   0.443  -0.065  0.00  0.00     0.183 C 
ATOM     11  C   UNL d   1       3.309  -0.608   0.480  0.00  0.00     0.180 C 
ATOM     12  C   UNL d   1       2.594  -1.633   1.392  0.00  0.00     0.183 C 
ATOM     13  O   UNL d   1       1.660  -1.037   2.319  0.00  0.00    -0.349 OA
BRANCH   9  14
ATOM     14  O   UNL d   1       0.088   0.672   0.718  0.00  0.00    -0.388 OA
ATOM     15  H   UNL d   1      -0.027  -0.286   0.846  0.00  0.00     0.210 HD
ENDBRANCH   9  14
BRANCH  10  16
ATOM     16  O   UNL d   1       3.108   1.511  -0.618  0.00  0.00    -0.390 OA
ATOM     17  H   UNL d   1       3.572   1.951   0.117  0.00  0.00     0.210 HD
ENDBRANCH  10  16
BRANCH  11  18
ATOM     18  O   UNL d   1       3.967  -1.285  -0.594  0.00  0.00    -0.390 OA
ATOM     19  H   UNL d   1       3.284  -1.608  -1.205  0.00  0.00     0.210 HD
ENDBRANCH  11  18
BRANCH  12  20
ATOM     20  C   UNL d   1       3.637  -2.466   2.166  0.00  0.00     0.301 C 
BRANCH  20  21
ATOM     21  N   UNL d   1       3.018  -3.284   3.210  0.00  0.00     0.080 N 
ATOM     22  H   UNL d   1       2.662  -2.665   3.937  0.00  0.00     0.312 HD
ATOM     23  H   UNL d   1       3.741  -3.850   3.656  0.00  0.00     0.312 HD
ENDBRANCH  20  21
ENDBRANCH  12  20
ENDBRANCH   7   8
ENDBRANCH   1   7
BRANCH   2  24
ATOM     24  O   UNL d   1       3.228   2.672   3.112  0.00  0.00    -0.390 OA
ATOM     25  H   UNL d   1       3.043   3.375   2.467  0.00  0.00     0.210 HD
ENDBRANCH   2  24
BRANCH   6  26
ATOM     26  N   UNL d   1       0.097   0.719   6.338  0.00  0.00     0.085 N 
ATOM     27  H   UNL d   1      -0.263  -0.016   5.738  0.00  0.00     0.313 HD
ATOM     28  H   UNL d   1      -0.676   0.954   6.970  0.00  0.00     0.313 HD
ENDBRANCH   6  26
BRANCH   3  29
ATOM     29  O   UNL d   1       3.800   4.493   5.306  0.00  0.00    -0.348 OA
BRANCH  29  30
ATOM     30  C   UNL d   1       4.940   4.521   4.430  0.00  0.00     0.291 C 
ATOM     31  C   UNL d   1       6.085   5.348   5.029  0.00  0.00     0.208 C 
ATOM     32  C   UNL d   1       5.760   6.838   5.063  0.00  0.00     0.282 C 
ATOM     33  C   UNL d   1       5.213   7.306   3.709  0.00  0.00     0.184 C 
ATOM     34  C   UNL d   1       4.080   6.389   3.228  0.00  0.00     0.179 C 
ATOM     35  O   UNL d   1       4.608   5.056   3.142  0.00  0.00    -0.349 OA
BRANCH  31  36
ATOM     36  O   UNL d   1       6.349   4.881   6.348  0.00  0.00    -0.388 OA
ATOM     37  H   UNL d   1       6.894   4.080   6.264  0.00  0.00     0.210 HD
ENDBRANCH  31  36
BRANCH  32  38
ATOM     38  N   UNL d   1       6.965   7.589   5.370  0.00  0.00     0.088 N 
ATOM     39  H   UNL d   1       7.426   7.210   6.196  0.00  0.00     0.313 HD
ATOM     40  H   UNL d   1       6.721   8.550   5.612  0.00  0.00     0.313 HD
ENDBRANCH  32  38
BRANCH  33  41
ATOM     41  O   UNL d   1       4.714   8.634   3.836  0.00  0.00    -0.391 OA
ATOM     42  H   UNL d   1       4.997   9.134   3.050  0.00  0.00     0.210 HD
ENDBRANCH  33  41
BRANCH  34  43
ATOM     43  C   UNL d   1       3.559   6.763   1.840  0.00  0.00     0.198 C 
BRANCH  43  44
ATOM     44  O   UNL d   1       2.495   7.705   1.944  0.00  0.00    -0.398 OA
ATOM     45  H   UNL d   1       2.863   8.517   2.337  0.00  0.00     0.209 HD
ENDBRANCH  43  44
ENDBRANCH  34  43
ENDBRANCH  29  30
ENDBRANCH   3  29
BRANCH   4  46
ATOM     46  N   UNL d   1       2.778   2.131   7.631  0.00  0.00     0.085 N 
ATOM     47  H   UNL d   1       1.975   1.606   7.990  0.00  0.00     0.313 HD
ATOM     48  H   UNL d   1       3.228   2.535   8.444  0.00  0.00     0.313 HD
ENDBRANCH   4  46
TORSDOF 17
