2ESI_KAN_A_51
  1228              3D

 69 71  0  0  0  0  0  0  0  0999 V2000
    1.7850    0.3817    2.4159 C   0  0  0  0  0  0  0  0  0  0  0  0
    2.8208    0.5683    2.7044 H   0  0  0  0  0  0  0  0  0  0  0  0
    1.4466    0.9928    1.0481 C   0  0  0  0  0  0  0  0  0  0  0  0
    1.4911    2.0849    1.0955 H   0  0  0  0  0  0  0  0  0  0  0  0
    2.3386    0.4430   -0.0648 C   0  0  0  0  0  0  0  0  0  0  0  0
    1.7478    0.0249   -0.8891 H   0  0  0  0  0  0  0  0  0  0  0  0
    3.3089   -0.6078    0.4797 C   0  0  0  0  0  0  0  0  0  0  0  0
    4.1134   -0.1089    1.0382 H   0  0  0  0  0  0  0  0  0  0  0  0
    2.5938   -1.6327    1.3920 C   0  0  0  0  0  0  0  0  0  0  0  0
    2.0141   -2.3230    0.7715 H   0  0  0  0  0  0  0  0  0  0  0  0
    3.6372   -2.4656    2.1660 C   0  0  0  0  0  0  0  0  0  0  0  0
    3.0185   -3.2845    3.2098 N   0  0  0  0  0  0  0  0  0  0  0  0
    1.6602   -1.0374    2.3187 O   0  0  0  0  0  0  0  0  0  0  0  0
    3.9669   -1.2847   -0.5938 O   0  0  0  0  0  0  0  0  0  0  0  0
    3.1083    1.5107   -0.6175 O   0  0  0  0  0  0  0  0  0  0  0  0
    0.0877    0.6719    0.7181 O   0  0  0  0  0  0  0  0  0  0  0  0
    0.9041    0.9902    3.3647 O   0  0  0  0  0  0  0  0  0  0  0  0
    1.5564    1.5492    4.5192 C   0  0  0  0  0  0  0  0  0  0  0  0
    2.2243    0.7749    4.9258 H   0  0  0  0  0  0  0  0  0  0  0  0
    2.3459    2.8371    4.2121 C   0  0  0  0  0  0  0  0  0  0  0  0
    1.6680    3.6644    3.9583 H   0  0  0  0  0  0  0  0  0  0  0  0
    3.1837    3.1982    5.4578 C   0  0  0  0  0  0  0  0  0  0  0  0
    3.9971    2.4708    5.5698 H   0  0  0  0  0  0  0  0  0  0  0  0
    2.3171    3.2063    6.7476 C   0  0  0  0  0  0  0  0  0  0  0  0
    2.4744    4.1571    7.2782 H   0  0  0  0  0  0  0  0  0  0  0  0
    0.8025    3.0658    6.4515 C   0  0  0  0  0  0  0  0  0  0  0  0
    0.4445    1.8877    5.5301 C   0  0  0  0  0  0  0  0  0  0  0  0
   -0.4716    2.1680    4.9952 H   0  0  0  0  0  0  0  0  0  0  0  0
    0.0971    0.7188    6.3381 N   0  0  0  0  0  0  0  0  0  0  0  0
    2.7779    2.1309    7.6312 N   0  0  0  0  0  0  0  0  0  0  0  0
    3.8004    4.4934    5.3059 O   0  0  0  0  0  0  0  0  0  0  0  0
    4.9398    4.5214    4.4296 C   0  0  0  0  0  0  0  0  0  0  0  0
    5.3196    3.5093    4.2724 H   0  0  0  0  0  0  0  0  0  0  0  0
    6.0845    5.3476    5.0286 C   0  0  0  0  0  0  0  0  0  0  0  0
    6.9852    5.1815    4.4264 H   0  0  0  0  0  0  0  0  0  0  0  0
    5.7604    6.8381    5.0629 C   0  0  0  0  0  0  0  0  0  0  0  0
    5.0242    7.0362    5.8506 H   0  0  0  0  0  0  0  0  0  0  0  0
    5.2127    7.3056    3.7091 C   0  0  0  0  0  0  0  0  0  0  0  0
    6.0131    7.3054    2.9532 H   0  0  0  0  0  0  0  0  0  0  0  0
    4.0799    6.3886    3.2277 C   0  0  0  0  0  0  0  0  0  0  0  0
    3.2297    6.4002    3.9288 H   0  0  0  0  0  0  0  0  0  0  0  0
    3.5588    6.7627    1.8398 C   0  0  0  0  0  0  0  0  0  0  0  0
    2.4955    7.7054    1.9443 O   0  0  0  0  0  0  0  0  0  0  0  0
    4.6080    5.0560    3.1423 O   0  0  0  0  0  0  0  0  0  0  0  0
    4.7141    8.6340    3.8357 O   0  0  0  0  0  0  0  0  0  0  0  0
    6.9653    7.5892    5.3705 N   0  0  0  0  0  0  0  0  0  0  0  0
    6.3486    4.8809    6.3480 O   0  0  0  0  0  0  0  0  0  0  0  0
    3.2278    2.6717    3.1123 O   0  0  0  0  0  0  0  0  0  0  0  0
    4.1591   -3.1304    1.4637 H   0  0  0  0  0  0  0  0  0  0  0  0
    4.3930   -1.8085    2.6178 H   0  0  0  0  0  0  0  0  0  0  0  0
    2.6615   -2.6646    3.9371 H   0  0  0  0  0  0  0  0  0  0  0  0
    3.7415   -3.8498    3.6564 H   0  0  0  0  0  0  0  0  0  0  0  0
    3.2837   -1.6079   -1.2046 H   0  0  0  0  0  0  0  0  0  0  0  0
    3.5724    1.9514    0.1167 H   0  0  0  0  0  0  0  0  0  0  0  0
   -0.0267   -0.2864    0.8457 H   0  0  0  0  0  0  0  0  0  0  0  0
    0.4795    3.9979    5.9678 H   0  0  0  0  0  0  0  0  0  0  0  0
    0.2625    3.0266    7.4031 H   0  0  0  0  0  0  0  0  0  0  0  0
   -0.2631   -0.0158    5.7377 H   0  0  0  0  0  0  0  0  0  0  0  0
   -0.6765    0.9536    6.9697 H   0  0  0  0  0  0  0  0  0  0  0  0
    1.9748    1.6062    7.9901 H   0  0  0  0  0  0  0  0  0  0  0  0
    3.2285    2.5351    8.4439 H   0  0  0  0  0  0  0  0  0  0  0  0
    4.3460    7.1982    1.2095 H   0  0  0  0  0  0  0  0  0  0  0  0
    3.1673    5.8797    1.3140 H   0  0  0  0  0  0  0  0  0  0  0  0
    2.8629    8.5168    2.3369 H   0  0  0  0  0  0  0  0  0  0  0  0
    4.9965    9.1342    3.0500 H   0  0  0  0  0  0  0  0  0  0  0  0
    7.4259    7.2102    6.1959 H   0  0  0  0  0  0  0  0  0  0  0  0
    6.7205    8.5495    5.6120 H   0  0  0  0  0  0  0  0  0  0  0  0
    6.8941    4.0795    6.2637 H   0  0  0  0  0  0  0  0  0  0  0  0
    3.0426    3.3751    2.4670 H   0  0  0  0  0  0  0  0  0  0  0  0
  1  2  1  0  0  0  0
  3  1  1  0  0  0  0
  3  4  1  0  0  0  0
  5  3  1  0  0  0  0
  5  6  1  0  0  0  0
  7  5  1  0  0  0  0
  7  8  1  0  0  0  0
  9  7  1  0  0  0  0
  9 10  1  0  0  0  0
 11  9  1  0  0  0  0
 12 11  1  0  0  0  0
 13  9  1  0  0  0  0
 13  1  1  0  0  0  0
 14  7  1  0  0  0  0
 15  5  1  0  0  0  0
 16  3  1  0  0  0  0
 17  1  1  0  0  0  0
 18 17  1  0  0  0  0
 18 19  1  0  0  0  0
 20 18  1  0  0  0  0
 20 21  1  0  0  0  0
 22 20  1  0  0  0  0
 22 23  1  0  0  0  0
 24 22  1  0  0  0  0
 24 25  1  0  0  0  0
 26 24  1  0  0  0  0
 27 26  1  0  0  0  0
 27 28  1  0  0  0  0
 27 18  1  0  0  0  0
 29 27  1  0  0  0  0
 30 24  1  0  0  0  0
 31 22  1  0  0  0  0
 32 31  1  0  0  0  0
 32 33  1  0  0  0  0
 34 32  1  0  0  0  0
 34 35  1  0  0  0  0
 36 34  1  0  0  0  0
 36 37  1  0  0  0  0
 38 36  1  0  0  0  0
 38 39  1  0  0  0  0
 40 38  1  0  0  0  0
 40 41  1  0  0  0  0
 42 40  1  0  0  0  0
 43 42  1  0  0  0  0
 44 40  1  0  0  0  0
 44 32  1  0  0  0  0
 45 38  1  0  0  0  0
 46 36  1  0  0  0  0
 47 34  1  0  0  0  0
 48 20  1  0  0  0  0
 11 49  1  0  0  0  0
 11 50  1  0  0  0  0
 12 51  1  0  0  0  0
 12 52  1  0  0  0  0
 14 53  1  0  0  0  0
 15 54  1  0  0  0  0
 16 55  1  0  0  0  0
 26 56  1  0  0  0  0
 26 57  1  0  0  0  0
 29 58  1  0  0  0  0
 29 59  1  0  0  0  0
 30 60  1  0  0  0  0
 30 61  1  0  0  0  0
 42 62  1  0  0  0  0
 42 63  1  0  0  0  0
 43 64  1  0  0  0  0
 45 65  1  0  0  0  0
 46 66  1  0  0  0  0
 46 67  1  0  0  0  0
 47 68  1  0  0  0  0
 48 69  1  0  0  0  0
M  END
>  <energy>
109.84120912372833

$$$$
