1LVJ_PMZ_A_47
 OpenBabel03221816523D

 45 47  0  0  0  0  0  0  0  0999 V2000
   -0.0310    1.8948   -0.0575 S   0  0  0  0  0  0  0  0  0  0  0  0
    1.3876    0.8357   -0.0534 C   0  0  0  0  0  0  0  0  0  0  0  0
    2.6142    1.5306   -0.0129 C   0  0  0  0  0  0  0  0  0  0  0  0
    3.8263    0.8566   -0.0044 C   0  0  0  0  0  0  0  0  0  0  0  0
    3.8185   -0.5295   -0.0345 C   0  0  0  0  0  0  0  0  0  0  0  0
    2.5909   -1.2237   -0.1042 C   0  0  0  0  0  0  0  0  0  0  0  0
    1.3343   -0.5742   -0.0935 C   0  0  0  0  0  0  0  0  0  0  0  0
    0.0895   -1.2785   -0.1192 N   0  0  0  0  0  0  0  0  0  0  0  0
   -1.2086   -0.6630   -0.0742 C   0  0  0  0  0  0  0  0  0  0  0  0
   -1.3697    0.7383   -0.0504 C   0  0  0  0  0  0  0  0  0  0  0  0
   -2.6486    1.3354   -0.0124 C   0  0  0  0  0  0  0  0  0  0  0  0
   -3.8018    0.5668   -0.0003 C   0  0  0  0  0  0  0  0  0  0  0  0
   -3.6825   -0.8106   -0.0203 C   0  0  0  0  0  0  0  0  0  0  0  0
   -2.4106   -1.4081   -0.0530 C   0  0  0  0  0  0  0  0  0  0  0  0
    0.1240   -2.7644   -0.0208 C   0  0  0  0  0  0  0  0  0  0  0  0
   -0.1882   -3.4808   -1.3446 C   0  0  0  0  0  0  0  0  0  0  0  0
    0.9102   -3.4207   -2.4141 C   0  0  0  0  0  0  0  0  0  0  0  0
    0.5730   -4.2528   -3.5938 N   0  0  0  0  0  0  0  0  0  0  0  0
   -0.6304   -3.7834   -4.2861 C   0  0  0  0  0  0  0  0  0  0  0  0
    1.6935   -4.2826   -4.5388 C   0  0  0  0  0  0  0  0  0  0  0  0
    5.0824   -1.3170   -0.0048 C   0  0  0  0  0  0  0  0  0  0  0  0
    5.0901   -2.4549   -0.4745 O   0  0  0  0  0  0  0  0  0  0  0  0
    6.3218   -0.7344    0.6257 C   0  0  0  0  0  0  0  0  0  0  0  0
    2.6251    2.6200    0.0112 H   0  0  0  0  0  0  0  0  0  0  0  0
    4.7443    1.4344    0.0045 H   0  0  0  0  0  0  0  0  0  0  0  0
    2.6713   -2.3038   -0.1661 H   0  0  0  0  0  0  0  0  0  0  0  0
   -2.7468    2.4201    0.0082 H   0  0  0  0  0  0  0  0  0  0  0  0
   -4.7784    1.0400    0.0254 H   0  0  0  0  0  0  0  0  0  0  0  0
   -4.5738   -1.4324   -0.0130 H   0  0  0  0  0  0  0  0  0  0  0  0
   -2.4194   -2.4926   -0.0668 H   0  0  0  0  0  0  0  0  0  0  0  0
   -0.6029   -3.0916    0.7349 H   0  0  0  0  0  0  0  0  0  0  0  0
    1.0497   -3.1593    0.4049 H   0  0  0  0  0  0  0  0  0  0  0  0
   -1.1148   -3.0790   -1.7605 H   0  0  0  0  0  0  0  0  0  0  0  0
   -0.3805   -4.5362   -1.1097 H   0  0  0  0  0  0  0  0  0  0  0  0
    1.8363   -3.8097   -1.9722 H   0  0  0  0  0  0  0  0  0  0  0  0
    1.0988   -2.3831   -2.7143 H   0  0  0  0  0  0  0  0  0  0  0  0
   -1.5229   -3.9171   -3.6673 H   0  0  0  0  0  0  0  0  0  0  0  0
   -0.8144   -4.3768   -5.1894 H   0  0  0  0  0  0  0  0  0  0  0  0
   -0.5557   -2.7297   -4.5765 H   0  0  0  0  0  0  0  0  0  0  0  0
    2.5882   -4.7071   -4.0709 H   0  0  0  0  0  0  0  0  0  0  0  0
    1.9375   -3.2865   -4.9242 H   0  0  0  0  0  0  0  0  0  0  0  0
    1.4560   -4.9295   -5.3928 H   0  0  0  0  0  0  0  0  0  0  0  0
    6.1420    0.2208    1.1237 H   0  0  0  0  0  0  0  0  0  0  0  0
    7.0885   -0.5968   -0.1420 H   0  0  0  0  0  0  0  0  0  0  0  0
    6.6826   -1.4284    1.3891 H   0  0  0  0  0  0  0  0  0  0  0  0
  1  2  1  0  0  0  0
  1 10  1  0  0  0  0
  2  3  2  0  0  0  0
  2  7  1  0  0  0  0
  3  4  1  0  0  0  0
  3 24  1  0  0  0  0
  4  5  2  0  0  0  0
  4 25  1  0  0  0  0
  5  6  1  0  0  0  0
  5 21  1  0  0  0  0
  6  7  2  0  0  0  0
  6 26  1  0  0  0  0
  7  8  1  0  0  0  0
  8  9  1  0  0  0  0
  8 15  1  0  0  0  0
  9 10  2  0  0  0  0
  9 14  1  0  0  0  0
 10 11  1  0  0  0  0
 11 12  2  0  0  0  0
 11 27  1  0  0  0  0
 12 13  1  0  0  0  0
 12 28  1  0  0  0  0
 13 14  2  0  0  0  0
 13 29  1  0  0  0  0
 14 30  1  0  0  0  0
 15 16  1  0  0  0  0
 15 31  1  0  0  0  0
 15 32  1  0  0  0  0
 16 17  1  0  0  0  0
 16 33  1  0  0  0  0
 16 34  1  0  0  0  0
 17 18  1  0  0  0  0
 17 35  1  0  0  0  0
 17 36  1  0  0  0  0
 18 19  1  0  0  0  0
 18 20  1  0  0  0  0
 19 37  1  0  0  0  0
 19 38  1  0  0  0  0
 19 39  1  0  0  0  0
 20 40  1  0  0  0  0
 20 41  1  0  0  0  0
 20 42  1  0  0  0  0
 21 22  2  0  0  0  0
 21 23  1  0  0  0  0
 23 43  1  0  0  0  0
 23 44  1  0  0  0  0
 23 45  1  0  0  0  0
M  END
$$$$
