@<TRIPOS>MOLECULE
1LVJ_PMZ_A_47
 45 47 0 0 0
SMALL
GASTEIGER

@<TRIPOS>ATOM
      1 S          -0.0310    1.8948   -0.0575 S.3     1  UNL1       -0.0857
      2 C           1.3876    0.8357   -0.0534 C.ar    1  UNL1        0.0341
      3 C           2.6142    1.5306   -0.0129 C.ar    1  UNL1       -0.0455
      4 C           3.8263    0.8566   -0.0044 C.ar    1  UNL1       -0.0501
      5 C           3.8185   -0.5295   -0.0345 C.ar    1  UNL1        0.0189
      6 C           2.5909   -1.2237   -0.1042 C.ar    1  UNL1       -0.0288
      7 C           1.3343   -0.5742   -0.0935 C.ar    1  UNL1        0.0485
      8 N           0.0895   -1.2785   -0.1192 N.pl3   1  UNL1       -0.2983
      9 C          -1.2086   -0.6630   -0.0742 C.ar    1  UNL1        0.0479
     10 C          -1.3697    0.7383   -0.0504 C.ar    1  UNL1        0.0341
     11 C          -2.6486    1.3354   -0.0124 C.ar    1  UNL1       -0.0462
     12 C          -3.8018    0.5668   -0.0003 C.ar    1  UNL1       -0.0606
     13 C          -3.6825   -0.8106   -0.0203 C.ar    1  UNL1       -0.0599
     14 C          -2.4106   -1.4081   -0.0530 C.ar    1  UNL1       -0.0393
     15 C           0.1240   -2.7644   -0.0208 C.3     1  UNL1        0.0185
     16 C          -0.1882   -3.4808   -1.3446 C.3     1  UNL1       -0.0240
     17 C           0.9102   -3.4207   -2.4141 C.3     1  UNL1       -0.0003
     18 N           0.5730   -4.2528   -3.5938 N.3     1  UNL1       -0.3083
     19 C          -0.6304   -3.7834   -4.2861 C.3     1  UNL1       -0.0130
     20 C           1.6935   -4.2826   -4.5388 C.3     1  UNL1       -0.0130
     21 C           5.0824   -1.3170   -0.0048 C.2     1  UNL1        0.1602
     22 O           5.0901   -2.4549   -0.4745 O.2     1  UNL1       -0.2924
     23 C           6.3218   -0.7344    0.6257 C.3     1  UNL1       -0.0014
     24 H           2.6251    2.6200    0.0112 H       1  UNL1        0.0629
     25 H           4.7443    1.4344    0.0045 H       1  UNL1        0.0625
     26 H           2.6713   -2.3038   -0.1661 H       1  UNL1        0.0643
     27 H          -2.7468    2.4201    0.0082 H       1  UNL1        0.0629
     28 H          -4.7784    1.0400    0.0254 H       1  UNL1        0.0618
     29 H          -4.5738   -1.4324   -0.0130 H       1  UNL1        0.0618
     30 H          -2.4194   -2.4926   -0.0668 H       1  UNL1        0.0636
     31 H          -0.6029   -3.0916    0.7349 H       1  UNL1        0.0468
     32 H           1.0497   -3.1593    0.4049 H       1  UNL1        0.0468
     33 H          -1.1148   -3.0790   -1.7605 H       1  UNL1        0.0293
     34 H          -0.3805   -4.5362   -1.1097 H       1  UNL1        0.0293
     35 H           1.8363   -3.8097   -1.9722 H       1  UNL1        0.0427
     36 H           1.0988   -2.3831   -2.7143 H       1  UNL1        0.0427
     37 H          -1.5229   -3.9171   -3.6673 H       1  UNL1        0.0391
     38 H          -0.8144   -4.3768   -5.1894 H       1  UNL1        0.0391
     39 H          -0.5557   -2.7297   -4.5765 H       1  UNL1        0.0391
     40 H           2.5882   -4.7071   -4.0709 H       1  UNL1        0.0391
     41 H           1.9375   -3.2865   -4.9242 H       1  UNL1        0.0391
     42 H           1.4560   -4.9295   -5.3928 H       1  UNL1        0.0391
     43 H           6.1420    0.2208    1.1237 H       1  UNL1        0.0309
     44 H           7.0885   -0.5968   -0.1420 H       1  UNL1        0.0309
     45 H           6.6826   -1.4284    1.3891 H       1  UNL1        0.0309
@<TRIPOS>BOND
     1     1     2    1
     2     1    10    1
     3     2     3   ar
     4     2     7   ar
     5     3     4   ar
     6     3    24    1
     7     4     5   ar
     8     4    25    1
     9     5     6   ar
    10     5    21    1
    11     6     7   ar
    12     6    26    1
    13     7     8    1
    14     8     9    1
    15     8    15    1
    16     9    10   ar
    17     9    14   ar
    18    10    11   ar
    19    11    12   ar
    20    11    27    1
    21    12    13   ar
    22    12    28    1
    23    13    14   ar
    24    13    29    1
    25    14    30    1
    26    15    16    1
    27    15    31    1
    28    15    32    1
    29    16    17    1
    30    16    33    1
    31    16    34    1
    32    17    18    1
    33    17    35    1
    34    17    36    1
    35    18    19    1
    36    18    20    1
    37    19    37    1
    38    19    38    1
    39    19    39    1
    40    20    40    1
    41    20    41    1
    42    20    42    1
    43    21    22    2
    44    21    23    1
    45    23    43    1
    46    23    44    1
    47    23    45    1
