REMARK  5 active torsions:
REMARK  status: ('A' for Active; 'I' for Inactive)
REMARK    1  A    between atoms: C_5  and  C_21 
REMARK    2  A    between atoms: N_8  and  C_15 
REMARK    3  A    between atoms: C_15  and  C_16 
REMARK    4  A    between atoms: C_16  and  C_17 
REMARK    5  A    between atoms: C_17  and  N_18 
ROOT
ATOM      1  S   UNL d   1      -0.031   1.895  -0.058  0.00  0.00    -0.086 SA
ATOM      2  C   UNL d   1       1.388   0.836  -0.053  0.00  0.00     0.032 A 
ATOM      3  C   UNL d   1       2.614   1.531  -0.013  0.00  0.00     0.022 A 
ATOM      4  C   UNL d   1       3.826   0.857  -0.004  0.00  0.00     0.016 A 
ATOM      5  C   UNL d   1       3.818  -0.529  -0.035  0.00  0.00     0.011 A 
ATOM      6  C   UNL d   1       2.591  -1.224  -0.104  0.00  0.00     0.046 A 
ATOM      7  C   UNL d   1       1.334  -0.574  -0.093  0.00  0.00     0.053 A 
ATOM      8  N   UNL d   1       0.089  -1.278  -0.119  0.00  0.00    -0.345 N 
ATOM      9  C   UNL d   1      -1.209  -0.663  -0.074  0.00  0.00     0.052 A 
ATOM     10  C   UNL d   1      -1.370   0.738  -0.050  0.00  0.00     0.032 A 
ATOM     11  C   UNL d   1      -2.649   1.335  -0.012  0.00  0.00     0.021 A 
ATOM     12  C   UNL d   1      -3.802   0.567  -0.000  0.00  0.00     0.002 A 
ATOM     13  C   UNL d   1      -3.683  -0.811  -0.020  0.00  0.00     0.002 A 
ATOM     14  C   UNL d   1      -2.411  -1.408  -0.053  0.00  0.00     0.031 A 
ENDROOT
BRANCH   8  15
ATOM     15  C   UNL d   1       0.124  -2.764  -0.021  0.00  0.00     0.131 C 
BRANCH  15  16
ATOM     16  C   UNL d   1      -0.188  -3.481  -1.345  0.00  0.00     0.050 C 
BRANCH  16  17
ATOM     17  C   UNL d   1       0.910  -3.421  -2.414  0.00  0.00     0.273 C 
BRANCH  17  18
ATOM     18  N   UNL d   1       0.573  -4.253  -3.594  0.00  0.00     0.080 N 
ATOM     19  C   UNL d   1      -0.630  -3.783  -4.286  0.00  0.00     0.309 C 
ATOM     20  C   UNL d   1       1.694  -4.283  -4.539  0.00  0.00     0.309 C 
ENDBRANCH  17  18
ENDBRANCH  16  17
ENDBRANCH  15  16
ENDBRANCH   8  15
BRANCH   5  21
ATOM     21  C   UNL d   1       5.082  -1.317  -0.005  0.00  0.00     0.155 C 
ATOM     22  O   UNL d   1       5.090  -2.455  -0.474  0.00  0.00    -0.293 OA
ATOM     23  C   UNL d   1       6.322  -0.734   0.626  0.00  0.00     0.096 C 
ENDBRANCH   5  21
TORSDOF 5
