REMARK  3 active torsions:
REMARK  status: ('A' for Active; 'I' for Inactive)
REMARK    1  A    between atoms: C_3  and  N_15 
REMARK    2  A    between atoms: C_9  and  C_10 
REMARK    3  A    between atoms: C_10  and  N_11 
ROOT
ATOM      1  N   UNL d   1       2.153  -0.596  -0.116  0.00  0.00    -0.298 N 
ATOM      2  H   UNL d   1       3.052  -1.034  -0.220  0.00  0.00     0.171 HD
ATOM      3  C   UNL d   1       2.057   0.779  -0.093  0.00  0.00     0.181 A 
ATOM      4  N   UNL d   1       0.925   1.424  -0.032  0.00  0.00    -0.201 NA
ATOM      5  C   UNL d   1      -0.158   0.613   0.003  0.00  0.00     0.147 A 
ATOM      6  C   UNL d   1      -0.200  -0.762  -0.044  0.00  0.00     0.087 A 
ATOM      7  C   UNL d   1       1.067  -1.452  -0.149  0.00  0.00     0.262 A 
ATOM      8  O   UNL d   1       1.196  -2.665  -0.289  0.00  0.00    -0.267 OA
ATOM      9  C   UNL d   1      -1.567  -1.172   0.010  0.00  0.00     0.004 A 
ATOM     10  C   UNL d   1      -2.301   0.007   0.073  0.00  0.00     0.099 A 
ATOM     11  N   UNL d   1      -1.437   1.074   0.073  0.00  0.00    -0.349 N 
ATOM     12  H   UNL d   1      -1.690   2.052   0.100  0.00  0.00     0.167 HD
ENDROOT
BRANCH   9  13
ATOM     13  C   UNL d   1      -2.153  -2.546  -0.049  0.00  0.00     0.307 C 
BRANCH  13  14
ATOM     14  N   UNL d   1      -1.341  -3.499   0.690  0.00  0.00     0.082 N 
ATOM     15  H   UNL d   1      -0.397  -3.505   0.285  0.00  0.00     0.313 HD
ATOM     16  H   UNL d   1      -1.700  -4.435   0.517  0.00  0.00     0.313 HD
ENDBRANCH  13  14
ENDBRANCH   9  13
BRANCH   3  17
ATOM     17  N   UNL d   1       3.227   1.464  -0.137  0.00  0.00    -0.272 NA
ATOM     18  H   UNL d   1       4.019   1.049   0.334  0.00  0.00     0.127 HD
ATOM     19  H   UNL d   1       3.099   2.445   0.095  0.00  0.00     0.127 HD
ENDBRANCH   3  17
TORSDOF 3
