@<TRIPOS>MOLECULE
4P5J_SPM_A_115
 40 39 0 0 0
SMALL
GASTEIGER

@<TRIPOS>ATOM
      1 N           1.0378    0.0281    0.0302 N.3     1  UNL1       -0.3299
      2 C           2.4964    0.0255    0.0239 C.3     1  UNL1       -0.0058
      3 C           3.0395    1.4183    0.3399 C.3     1  UNL1       -0.0281
      4 C           4.5693    1.4100    0.3394 C.3     1  UNL1       -0.0030
      5 N           5.0799    2.7507    0.6310 N.3     1  UNL1       -0.3159
      6 C           6.5426    2.7606    0.6423 C.3     1  UNL1       -0.0041
      7 C           7.0461    4.1682    0.9613 C.3     1  UNL1       -0.0393
      8 C           8.5755    4.2155    0.9654 C.3     1  UNL1       -0.0393
      9 C           9.0789    5.6228    1.2859 C.3     1  UNL1       -0.0041
     10 N          10.5417    5.6331    1.2963 N.3     1  UNL1       -0.3159
     11 C          11.0518    6.9734    1.5916 C.3     1  UNL1       -0.0030
     12 C          12.5815    6.9662    1.5877 C.3     1  UNL1       -0.0281
     13 C          13.1244    8.3578    1.9094 C.3     1  UNL1       -0.0058
     14 N          14.5828    8.3567    1.8982 N.3     1  UNL1       -0.3299
     15 H           0.6963   -0.8914   -0.2469 H       1  UNL1        0.1182
     16 H           0.6939    0.6832   -0.6716 H       1  UNL1        0.1182
     17 H           2.8536   -0.3061   -0.9573 H       1  UNL1        0.0422
     18 H           2.8528   -0.6944    0.7686 H       1  UNL1        0.0422
     19 H           2.6690    1.7473    1.3196 H       1  UNL1        0.0290
     20 H           2.6729    2.1384   -0.4034 H       1  UNL1        0.0290
     21 H           4.9289    1.0822   -0.6431 H       1  UNL1        0.0424
     22 H           4.9312    0.6966    1.0894 H       1  UNL1        0.0424
     23 H           4.7272    3.0598    1.5374 H       1  UNL1        0.1219
     24 H           6.9249    2.4526   -0.3382 H       1  UNL1        0.0424
     25 H           6.9224    2.0567    1.3925 H       1  UNL1        0.0424
     26 H           6.6679    4.4865    1.9412 H       1  UNL1        0.0278
     27 H           6.6601    4.8785    0.2192 H       1  UNL1        0.0278
     28 H           8.9535    3.8982   -0.0148 H       1  UNL1        0.0278
     29 H           8.9616    3.5045    1.7068 H       1  UNL1        0.0278
     30 H           8.6970    5.9296    2.2669 H       1  UNL1        0.0424
     31 H           8.6985    6.3275    0.5368 H       1  UNL1        0.0424
     32 H          10.8938    5.3270    0.3887 H       1  UNL1        0.1219
     33 H          10.6938    7.2971    2.5758 H       1  UNL1        0.0424
     34 H          10.6878    7.6890    0.8448 H       1  UNL1        0.0424
     35 H          12.9503    6.6422    0.6057 H       1  UNL1        0.0290
     36 H          12.9503    6.2430    2.3269 H       1  UNL1        0.0290
     37 H          12.7702    8.6839    2.8937 H       1  UNL1        0.0422
     38 H          12.7647    9.0816    1.1700 H       1  UNL1        0.0422
     39 H          14.9298    7.6979    2.5949 H       1  UNL1        0.1182
     40 H          14.9245    9.2749    2.1796 H       1  UNL1        0.1182
@<TRIPOS>BOND
     1     1     2    1
     2     1    15    1
     3     1    16    1
     4     2     3    1
     5     2    17    1
     6     2    18    1
     7     3     4    1
     8     3    19    1
     9     3    20    1
    10     4     5    1
    11     4    21    1
    12     4    22    1
    13     5     6    1
    14     5    23    1
    15     6     7    1
    16     6    24    1
    17     6    25    1
    18     7     8    1
    19     7    26    1
    20     7    27    1
    21     8     9    1
    22     8    28    1
    23     8    29    1
    24     9    10    1
    25     9    30    1
    26     9    31    1
    27    10    11    1
    28    10    32    1
    29    11    12    1
    30    11    33    1
    31    11    34    1
    32    12    13    1
    33    12    35    1
    34    12    36    1
    35    13    14    1
    36    13    37    1
    37    13    38    1
    38    14    39    1
    39    14    40    1
