4P5J_SPM_A_115
 OpenBabel03221817313D

 40 39  0  0  0  0  0  0  0  0999 V2000
    1.0378    0.0281    0.0302 N   0  0  0  0  0  0  0  0  0  0  0  0
    2.4964    0.0255    0.0239 C   0  0  0  0  0  0  0  0  0  0  0  0
    3.0395    1.4183    0.3399 C   0  0  0  0  0  0  0  0  0  0  0  0
    4.5693    1.4100    0.3394 C   0  0  0  0  0  0  0  0  0  0  0  0
    5.0799    2.7507    0.6310 N   0  0  0  0  0  0  0  0  0  0  0  0
    6.5426    2.7606    0.6423 C   0  0  0  0  0  0  0  0  0  0  0  0
    7.0461    4.1682    0.9613 C   0  0  0  0  0  0  0  0  0  0  0  0
    8.5755    4.2155    0.9654 C   0  0  0  0  0  0  0  0  0  0  0  0
    9.0789    5.6228    1.2859 C   0  0  0  0  0  0  0  0  0  0  0  0
   10.5417    5.6331    1.2963 N   0  0  0  0  0  0  0  0  0  0  0  0
   11.0518    6.9734    1.5916 C   0  0  0  0  0  0  0  0  0  0  0  0
   12.5815    6.9662    1.5877 C   0  0  0  0  0  0  0  0  0  0  0  0
   13.1244    8.3578    1.9094 C   0  0  0  0  0  0  0  0  0  0  0  0
   14.5828    8.3567    1.8982 N   0  0  0  0  0  0  0  0  0  0  0  0
    0.6963   -0.8914   -0.2469 H   0  0  0  0  0  0  0  0  0  0  0  0
    0.6939    0.6832   -0.6716 H   0  0  0  0  0  0  0  0  0  0  0  0
    2.8536   -0.3061   -0.9573 H   0  0  0  0  0  0  0  0  0  0  0  0
    2.8528   -0.6944    0.7686 H   0  0  0  0  0  0  0  0  0  0  0  0
    2.6690    1.7473    1.3196 H   0  0  0  0  0  0  0  0  0  0  0  0
    2.6729    2.1384   -0.4034 H   0  0  0  0  0  0  0  0  0  0  0  0
    4.9289    1.0822   -0.6431 H   0  0  0  0  0  0  0  0  0  0  0  0
    4.9312    0.6966    1.0894 H   0  0  0  0  0  0  0  0  0  0  0  0
    4.7272    3.0598    1.5374 H   0  0  0  0  0  0  0  0  0  0  0  0
    6.9249    2.4526   -0.3382 H   0  0  0  0  0  0  0  0  0  0  0  0
    6.9224    2.0567    1.3925 H   0  0  0  0  0  0  0  0  0  0  0  0
    6.6679    4.4865    1.9412 H   0  0  0  0  0  0  0  0  0  0  0  0
    6.6601    4.8785    0.2192 H   0  0  0  0  0  0  0  0  0  0  0  0
    8.9535    3.8982   -0.0148 H   0  0  0  0  0  0  0  0  0  0  0  0
    8.9616    3.5045    1.7068 H   0  0  0  0  0  0  0  0  0  0  0  0
    8.6970    5.9296    2.2669 H   0  0  0  0  0  0  0  0  0  0  0  0
    8.6985    6.3275    0.5368 H   0  0  0  0  0  0  0  0  0  0  0  0
   10.8938    5.3270    0.3887 H   0  0  0  0  0  0  0  0  0  0  0  0
   10.6938    7.2971    2.5758 H   0  0  0  0  0  0  0  0  0  0  0  0
   10.6878    7.6890    0.8448 H   0  0  0  0  0  0  0  0  0  0  0  0
   12.9503    6.6422    0.6057 H   0  0  0  0  0  0  0  0  0  0  0  0
   12.9503    6.2430    2.3269 H   0  0  0  0  0  0  0  0  0  0  0  0
   12.7702    8.6839    2.8937 H   0  0  0  0  0  0  0  0  0  0  0  0
   12.7647    9.0816    1.1700 H   0  0  0  0  0  0  0  0  0  0  0  0
   14.9298    7.6979    2.5949 H   0  0  0  0  0  0  0  0  0  0  0  0
   14.9245    9.2749    2.1796 H   0  0  0  0  0  0  0  0  0  0  0  0
  1  2  1  0  0  0  0
  1 15  1  0  0  0  0
  1 16  1  0  0  0  0
  2  3  1  0  0  0  0
  2 17  1  0  0  0  0
  2 18  1  0  0  0  0
  3  4  1  0  0  0  0
  3 19  1  0  0  0  0
  3 20  1  0  0  0  0
  4  5  1  0  0  0  0
  4 21  1  0  0  0  0
  4 22  1  0  0  0  0
  5  6  1  0  0  0  0
  5 23  1  0  0  0  0
  6  7  1  0  0  0  0
  6 24  1  0  0  0  0
  6 25  1  0  0  0  0
  7  8  1  0  0  0  0
  7 26  1  0  0  0  0
  7 27  1  0  0  0  0
  8  9  1  0  0  0  0
  8 28  1  0  0  0  0
  8 29  1  0  0  0  0
  9 10  1  0  0  0  0
  9 30  1  0  0  0  0
  9 31  1  0  0  0  0
 10 11  1  0  0  0  0
 10 32  1  0  0  0  0
 11 12  1  0  0  0  0
 11 33  1  0  0  0  0
 11 34  1  0  0  0  0
 12 13  1  0  0  0  0
 12 35  1  0  0  0  0
 12 36  1  0  0  0  0
 13 14  1  0  0  0  0
 13 37  1  0  0  0  0
 13 38  1  0  0  0  0
 14 39  1  0  0  0  0
 14 40  1  0  0  0  0
M  END
$$$$
