REMARK  13 active torsions:
REMARK  status: ('A' for Active; 'I' for Inactive)
REMARK    1  A    between atoms: N_1  and  C_2 
REMARK    2  A    between atoms: C_2  and  C_3 
REMARK    3  A    between atoms: C_3  and  C_4 
REMARK    4  A    between atoms: C_4  and  N_5 
REMARK    5  A    between atoms: N_5  and  C_6 
REMARK    6  A    between atoms: C_6  and  C_7 
REMARK    7  A    between atoms: C_7  and  C_8 
REMARK    8  A    between atoms: C_8  and  C_9 
REMARK    9  A    between atoms: C_9  and  N_10 
REMARK   10  A    between atoms: N_10  and  C_11 
REMARK   11  A    between atoms: C_11  and  C_12 
REMARK   12  A    between atoms: C_12  and  C_13 
REMARK   13  A    between atoms: C_13  and  N_14 
ROOT
ATOM      1  C   UNL d   1       7.046   4.168   0.961  0.00  0.00     0.032 C 
ENDROOT
BRANCH   1   2
ATOM      2  C   UNL d   1       6.543   2.761   0.642  0.00  0.00     0.269 C 
BRANCH   2   3
ATOM      3  N   UNL d   1       5.080   2.751   0.631  0.00  0.00     0.083 N 
ATOM      4  H   UNL d   1       4.727   3.060   1.537  0.00  0.00     0.315 HD
BRANCH   3   5
ATOM      5  C   UNL d   1       4.569   1.410   0.339  0.00  0.00     0.271 C 
BRANCH   5   6
ATOM      6  C   UNL d   1       3.039   1.418   0.340  0.00  0.00     0.059 C 
BRANCH   6   7
ATOM      7  C   UNL d   1       2.496   0.025   0.024  0.00  0.00     0.268 C 
BRANCH   7   8
ATOM      8  N   UNL d   1       1.038   0.028   0.030  0.00  0.00     0.078 N 
ATOM      9  H   UNL d   1       0.696  -0.891  -0.247  0.00  0.00     0.312 HD
ATOM     10  H   UNL d   1       0.694   0.683  -0.672  0.00  0.00     0.312 HD
ENDBRANCH   7   8
ENDBRANCH   6   7
ENDBRANCH   5   6
ENDBRANCH   3   5
ENDBRANCH   2   3
ENDBRANCH   1   2
BRANCH   1  11
ATOM     11  C   UNL d   1       8.575   4.215   0.965  0.00  0.00     0.032 C 
BRANCH  11  12
ATOM     12  C   UNL d   1       9.079   5.623   1.286  0.00  0.00     0.269 C 
BRANCH  12  13
ATOM     13  N   UNL d   1      10.542   5.633   1.296  0.00  0.00     0.083 N 
ATOM     14  H   UNL d   1      10.894   5.327   0.389  0.00  0.00     0.315 HD
BRANCH  13  15
ATOM     15  C   UNL d   1      11.052   6.973   1.592  0.00  0.00     0.271 C 
BRANCH  15  16
ATOM     16  C   UNL d   1      12.582   6.966   1.588  0.00  0.00     0.059 C 
BRANCH  16  17
ATOM     17  C   UNL d   1      13.124   8.358   1.909  0.00  0.00     0.268 C 
BRANCH  17  18
ATOM     18  N   UNL d   1      14.583   8.357   1.898  0.00  0.00     0.078 N 
ATOM     19  H   UNL d   1      14.930   7.698   2.595  0.00  0.00     0.312 HD
ATOM     20  H   UNL d   1      14.925   9.275   2.180  0.00  0.00     0.312 HD
ENDBRANCH  17  18
ENDBRANCH  16  17
ENDBRANCH  15  16
ENDBRANCH  13  15
ENDBRANCH  12  13
ENDBRANCH  11  12
ENDBRANCH   1  11
TORSDOF 13
