@<TRIPOS>MOLECULE
ligand.pdb
 24 23 0 0 0
SMALL
GASTEIGER

@<TRIPOS>ATOM
      1 N          -2.6949    1.1596   -0.0286 N.3     1  LYS1       -0.3184
      2 CA         -1.7097    0.1407   -0.3853 C.3     1  LYS1        0.1032
      3 HA         -0.7921    0.3308    0.1820 H       1  LYS1        0.0574
      4 C          -1.3824    0.3023   -1.8550 C.2     1  LYS1        0.3217
      5 O          -2.0769    0.8584   -2.6932 O.2     1  LYS1       -0.2493
      6 OXT        -0.1799   -0.2555   -2.1398 O.3     1  LYS1       -0.4795
      7 CB         -2.2568   -1.2650   -0.0974 C.3     1  LYS1       -0.0273
      8 CG         -2.0245   -1.7056    1.3550 C.3     1  LYS1       -0.0500
      9 CD         -3.0305   -1.0892    2.3289 C.3     1  LYS1       -0.0406
     10 CE         -2.5977   -1.2418    3.7835 C.3     1  LYS1       -0.0069
     11 NZ         -3.0672   -2.5066    4.3310 N.3     1  LYS1       -0.3300
     12 H1         -3.3275    1.3474   -0.8041 H       1  LYS1        0.1190
     13 H2         -2.2348    2.0409    0.1932 H       1  LYS1        0.1190
     14 HXT        -0.1249   -1.1926   -1.8558 H       1  LYS1        0.2951
     15 HB1        -1.7560   -1.9972   -0.7445 H       1  LYS1        0.0286
     16 HB2        -3.3228   -1.3304   -0.3546 H       1  LYS1        0.0286
     17 HG1        -0.9982   -1.4603    1.6500 H       1  LYS1        0.0266
     18 HG2        -2.1038   -2.7982    1.3994 H       1  LYS1        0.0266
     19 HD1        -4.0229   -1.5268    2.1621 H       1  LYS1        0.0277
     20 HD2        -3.1351   -0.0185    2.1386 H       1  LYS1        0.0277
     21 HE1        -1.5089   -1.1749    3.8819 H       1  LYS1        0.0422
     22 HE2        -3.0165   -0.4174    4.3703 H       1  LYS1        0.0422
     23 HZ1        -3.2474   -2.3969    5.3282 H       1  LYS1        0.1182
     24 HZ2        -2.3281   -3.2040    4.2539 H       1  LYS1        0.1182
@<TRIPOS>BOND
     1     2     1    1
     2     2     3    1
     3     4     2    1
     4     5     4    2
     5     6     4    1
     6     7     2    1
     7     8     7    1
     8     9     8    1
     9    10     9    1
    10    11    10    1
    11     1    12    1
    12     1    13    1
    13     6    14    1
    14     7    15    1
    15     7    16    1
    16     8    17    1
    17     8    18    1
    18     9    19    1
    19     9    20    1
    20    10    21    1
    21    10    22    1
    22    11    23    1
    23    11    24    1
