@<TRIPOS>MOLECULE
3C7R_NMY_A_24
 88 91 0 0 0
SMALL
GASTEIGER

@<TRIPOS>ATOM
      1 C          -0.1400    2.0336    1.8994 C.3     1  UNL1        0.1776
      2 H          -0.7727    2.4075    2.7173 H       1  UNL1        0.0927
      3 O           0.6037    3.1572    1.3994 O.3     1  UNL1       -0.3422
      4 C           1.7529    3.5529    2.1358 C.3     1  UNL1        0.1055
      5 H           2.4278    2.6985    1.9742 H       1  UNL1        0.0639
      6 C           2.5348    4.7965    1.4674 C.3     1  UNL1        0.1166
      7 H           1.8042    5.4127    0.9148 H       1  UNL1        0.0650
      8 C           3.3598    5.7357    2.5088 C.3     1  UNL1        0.0990
      9 H           4.3067    6.0549    2.0702 H       1  UNL1        0.0636
     10 C           3.6914    5.2321    3.9656 C.3     1  UNL1        0.0351
     11 H           4.0225    6.0558    4.6004 H       1  UNL1        0.0485
     12 N           4.8076    4.2737    3.8883 N.3     1  UNL1       -0.3250
     13 C           2.4263    4.5777    4.7438 C.3     1  UNL1       -0.0175
     14 C           1.5390    3.8982    3.6441 C.3     1  UNL1        0.0355
     15 H           2.5858    3.7677    3.3716 H       1  UNL1        0.0485
     16 N           0.5279    4.9514    3.5105 N.3     1  UNL1       -0.3250
     17 O           2.5987    6.9463    2.6631 O.3     1  UNL1       -0.3876
     18 O           3.4213    4.2039    0.4931 O.3     1  UNL1       -0.3402
     19 C           4.1950    5.1165   -0.2820 C.3     1  UNL1        0.1884
     20 H           3.9939    6.1696   -0.0374 H       1  UNL1        0.0938
     21 C           5.6660    4.7484   -0.1699 C.3     1  UNL1        0.1345
     22 H           5.7823    3.6639   -0.3038 H       1  UNL1        0.0671
     23 C           6.3180    5.5042   -1.3362 C.3     1  UNL1        0.1205
     24 H           7.1439    4.9054   -1.7351 H       1  UNL1        0.0651
     25 C           5.1190    5.6560   -2.3063 C.3     1  UNL1        0.1135
     26 H           4.8291    6.7055   -2.4026 H       1  UNL1        0.0647
     27 O           4.0017    4.9616   -1.6985 O.3     1  UNL1       -0.3405
     28 C           5.3476    5.1287   -3.7224 C.3     1  UNL1        0.0730
     29 O           5.4886    3.7154   -3.7308 O.3     1  UNL1       -0.3924
     30 O           6.8382    6.7509   -0.8311 O.3     1  UNL1       -0.3410
     31 C           7.3135    7.7041   -1.7861 C.3     1  UNL1        0.1776
     32 H           7.6636    7.1397   -2.6458 H       1  UNL1        0.0927
     33 C           8.5409    8.4887   -1.2614 C.3     1  UNL1        0.0853
     34 H           9.4049    7.8095   -1.2807 H       1  UNL1        0.0535
     35 C           8.8788    9.7642   -2.0889 C.3     1  UNL1        0.1033
     36 H           9.3295   10.5229   -1.4419 H       1  UNL1        0.0637
     37 C           7.7322   10.4054   -2.8896 C.3     1  UNL1        0.1100
     38 H           8.1176   10.8700   -3.8061 H       1  UNL1        0.0646
     39 C           6.6992    9.3725   -3.3265 C.3     1  UNL1        0.1022
     40 H           7.1856    8.6804   -4.0332 H       1  UNL1        0.0636
     41 O           6.2913    8.6351   -2.1701 O.3     1  UNL1       -0.3425
     42 C           5.4754   10.0033   -3.9912 C.3     1  UNL1        0.0222
     43 N           5.4546    9.6462   -5.4046 N.3     1  UNL1       -0.3276
     44 O           7.1402   11.4484   -2.1202 O.3     1  UNL1       -0.3866
     45 O           9.8952    9.4088   -3.0338 O.3     1  UNL1       -0.3874
     46 N           8.3864    8.8495    0.1456 N.3     1  UNL1       -0.3211
     47 O           6.2088    5.0993    1.0803 O.3     1  UNL1       -0.3841
     48 C           0.6158    0.7622    2.3821 C.3     1  UNL1        0.0853
     49 H          -0.1719    0.0385    2.6172 H       1  UNL1        0.0535
     50 N           1.3431    0.8870    3.6389 N.3     1  UNL1       -0.3211
     51 C           1.4582    0.1564    1.2604 C.3     1  UNL1        0.1033
     52 H           2.2543    0.8369    0.9357 H       1  UNL1        0.0637
     53 O           2.0769   -1.0494    1.7108 O.3     1  UNL1       -0.3874
     54 C           0.5212   -0.1598    0.0980 C.3     1  UNL1        0.1100
     55 H          -0.1377   -0.9970    0.3754 H       1  UNL1        0.0646
     56 O           1.3165   -0.5675   -1.0176 O.3     1  UNL1       -0.3866
     57 C          -0.3352    1.0609   -0.2980 C.3     1  UNL1        0.1022
     58 H           0.3211    1.8480   -0.6919 H       1  UNL1        0.0636
     59 O          -1.0424    1.5679    0.8561 O.3     1  UNL1       -0.3425
     60 C          -1.3244    0.6789   -1.4208 C.3     1  UNL1        0.0222
     61 N          -2.7048    0.5295   -0.9830 N.3     1  UNL1       -0.3276
     62 H           5.0378    4.0871    2.9151 H       1  UNL1        0.1185
     63 H           4.5076    3.3627    4.2407 H       1  UNL1        0.1185
     64 H           2.7478    3.8112    5.4695 H       1  UNL1        0.0297
     65 H           1.9241    5.3688    5.3355 H       1  UNL1        0.0297
     66 H           0.9514    5.8745    3.3738 H       1  UNL1        0.1185
     67 H           0.0006    5.0193    4.3779 H       1  UNL1        0.1185
     68 H           3.2411    7.6755    2.7264 H       1  UNL1        0.2100
     69 H           6.2379    5.5912   -4.1720 H       1  UNL1        0.0584
     70 H           4.4835    5.3836   -4.3506 H       1  UNL1        0.0584
     71 H           6.3579    3.5154   -4.1177 H       1  UNL1        0.2095
     72 H           5.4961   11.0979   -3.9441 H       1  UNL1        0.0448
     73 H           4.5292    9.6967   -3.5361 H       1  UNL1        0.0448
     74 H           6.3293    9.9523   -5.8367 H       1  UNL1        0.1183
     75 H           5.4438    8.6315   -5.4998 H       1  UNL1        0.1183
     76 H           7.4567   12.2729   -2.5315 H       1  UNL1        0.2100
     77 H           9.5525    8.6933   -3.5832 H       1  UNL1        0.2100
     78 H           8.1823    8.0100    0.6890 H       1  UNL1        0.1187
     79 H           9.2852    9.1926    0.4993 H       1  UNL1        0.1187
     80 H           6.9596    4.5140    1.2652 H       1  UNL1        0.2101
     81 H           2.2972    1.1855    3.4734 H       1  UNL1        0.1187
     82 H           1.4191   -0.0240    4.1024 H       1  UNL1        0.1187
     83 H           1.3868   -1.6117    2.1029 H       1  UNL1        0.2100
     84 H           1.6726   -1.4476   -0.8071 H       1  UNL1        0.2100
     85 H          -1.2761    1.4427   -2.1999 H       1  UNL1        0.0448
     86 H          -1.0279   -0.2586   -1.8982 H       1  UNL1        0.0448
     87 H          -3.2921    0.3570   -1.7983 H       1  UNL1        0.1183
     88 H          -3.0349    1.4082   -0.5852 H       1  UNL1        0.1183
@<TRIPOS>BOND
     1     1     2    1
     2     3     1    1
     3     4     3    1
     4     4     5    1
     5     6     4    1
     6     6     7    1
     7     8     6    1
     8     8     9    1
     9    10     8    1
    10    10    11    1
    11    12    10    1
    12    13    10    1
    13    14    13    1
    14    14    15    1
    15    14     4    1
    16    16    14    1
    17    17     8    1
    18    18     6    1
    19    19    18    1
    20    19    20    1
    21    21    19    1
    22    21    22    1
    23    23    21    1
    24    23    24    1
    25    25    23    1
    26    25    26    1
    27    27    25    1
    28    27    19    1
    29    28    25    1
    30    29    28    1
    31    30    23    1
    32    31    30    1
    33    31    32    1
    34    33    31    1
    35    33    34    1
    36    35    33    1
    37    35    36    1
    38    37    35    1
    39    37    38    1
    40    39    37    1
    41    39    40    1
    42    41    39    1
    43    41    31    1
    44    42    39    1
    45    43    42    1
    46    44    37    1
    47    45    35    1
    48    46    33    1
    49    47    21    1
    50    48     1    1
    51    48    49    1
    52    50    48    1
    53    51    48    1
    54    51    52    1
    55    53    51    1
    56    54    51    1
    57    54    55    1
    58    56    54    1
    59    57    54    1
    60    57    58    1
    61    59    57    1
    62    59     1    1
    63    60    57    1
    64    61    60    1
    65    12    62    1
    66    12    63    1
    67    13    64    1
    68    13    65    1
    69    16    66    1
    70    16    67    1
    71    17    68    1
    72    28    69    1
    73    28    70    1
    74    29    71    1
    75    42    72    1
    76    42    73    1
    77    43    74    1
    78    43    75    1
    79    44    76    1
    80    45    77    1
    81    46    78    1
    82    46    79    1
    83    47    80    1
    84    50    81    1
    85    50    82    1
    86    53    83    1
    87    56    84    1
    88    60    85    1
    89    60    86    1
    90    61    87    1
    91    61    88    1
