REMARK  22 active torsions:
REMARK  status: ('A' for Active; 'I' for Inactive)
REMARK    1  A    between atoms: O_2  and  C_1 
REMARK    2  A    between atoms: C_3  and  O_2 
REMARK    3  A    between atoms: O_12  and  C_4 
REMARK    4  A    between atoms: O_11  and  C_5 
REMARK    5  A    between atoms: N_7  and  C_6 
REMARK    6  A    between atoms: N_10  and  C_9 
REMARK    7  A    between atoms: C_13  and  O_12 
REMARK    8  A    between atoms: O_32  and  C_14 
REMARK    9  A    between atoms: O_20  and  C_15 
REMARK   10  A    between atoms: C_18  and  C_16 
REMARK   11  A    between atoms: O_19  and  C_18 
REMARK   12  A    between atoms: C_21  and  O_20 
REMARK   13  A    between atoms: N_31  and  C_22 
REMARK   14  A    between atoms: O_30  and  C_23 
REMARK   15  A    between atoms: O_29  and  C_24 
REMARK   16  A    between atoms: C_27  and  C_25 
REMARK   17  A    between atoms: N_28  and  C_27 
REMARK   18  A    between atoms: N_34  and  C_33 
REMARK   19  A    between atoms: O_36  and  C_35 
REMARK   20  A    between atoms: O_38  and  C_37 
REMARK   21  A    between atoms: C_41  and  C_39 
REMARK   22  A    between atoms: N_42  and  C_41 
ROOT
ATOM      1  C   UNL d   1       1.753   3.553   2.136  0.00  0.00     0.189 C 
ATOM      2  C   UNL d   1       2.535   4.796   1.467  0.00  0.00     0.186 C 
ATOM      3  C   UNL d   1       3.360   5.736   2.509  0.00  0.00     0.182 C 
ATOM      4  C   UNL d   1       3.691   5.232   3.966  0.00  0.00     0.251 C 
ATOM      5  C   UNL d   1       2.426   4.578   4.744  0.00  0.00     0.076 C 
ATOM      6  C   UNL d   1       1.539   3.898   3.644  0.00  0.00     0.251 C 
ENDROOT
BRANCH   2   7
ATOM      7  O   UNL d   1       3.421   4.204   0.493  0.00  0.00    -0.348 OA
BRANCH   7   8
ATOM      8  C   UNL d   1       4.195   5.117  -0.282  0.00  0.00     0.292 C 
ATOM      9  C   UNL d   1       5.666   4.748  -0.170  0.00  0.00     0.205 C 
ATOM     10  C   UNL d   1       6.318   5.504  -1.336  0.00  0.00     0.189 C 
ATOM     11  C   UNL d   1       5.119   5.656  -2.306  0.00  0.00     0.180 C 
ATOM     12  O   UNL d   1       4.002   4.962  -1.698  0.00  0.00    -0.348 OA
BRANCH   9  13
ATOM     13  O   UNL d   1       6.209   5.099   1.080  0.00  0.00    -0.388 OA
ATOM     14  H   UNL d   1       6.960   4.514   1.265  0.00  0.00     0.210 HD
ENDBRANCH   9  13
BRANCH  10  15
ATOM     15  O   UNL d   1       6.838   6.751  -0.831  0.00  0.00    -0.348 OA
BRANCH  15  16
ATOM     16  C   UNL d   1       7.314   7.704  -1.786  0.00  0.00     0.296 C 
ATOM     17  C   UNL d   1       8.541   8.489  -1.261  0.00  0.00     0.303 C 
ATOM     18  C   UNL d   1       8.879   9.764  -2.089  0.00  0.00     0.187 C 
ATOM     19  C   UNL d   1       7.732  10.405  -2.890  0.00  0.00     0.179 C 
ATOM     20  C   UNL d   1       6.699   9.373  -3.326  0.00  0.00     0.183 C 
ATOM     21  O   UNL d   1       6.291   8.635  -2.170  0.00  0.00    -0.349 OA
BRANCH  17  22
ATOM     22  N   UNL d   1       8.386   8.850   0.146  0.00  0.00     0.090 N 
ATOM     23  H   UNL d   1       8.182   8.010   0.689  0.00  0.00     0.313 HD
ATOM     24  H   UNL d   1       9.285   9.193   0.499  0.00  0.00     0.313 HD
ENDBRANCH  17  22
BRANCH  18  25
ATOM     25  O   UNL d   1       9.895   9.409  -3.034  0.00  0.00    -0.391 OA
ATOM     26  H   UNL d   1       9.553   8.693  -3.583  0.00  0.00     0.210 HD
ENDBRANCH  18  25
BRANCH  19  27
ATOM     27  O   UNL d   1       7.140  11.448  -2.120  0.00  0.00    -0.390 OA
ATOM     28  H   UNL d   1       7.457  12.273  -2.531  0.00  0.00     0.210 HD
ENDBRANCH  19  27
BRANCH  20  29
ATOM     29  C   UNL d   1       5.475  10.003  -3.991  0.00  0.00     0.301 C 
BRANCH  29  30
ATOM     30  N   UNL d   1       5.455   9.646  -5.405  0.00  0.00     0.080 N 
ATOM     31  H   UNL d   1       6.329   9.952  -5.837  0.00  0.00     0.312 HD
ATOM     32  H   UNL d   1       5.444   8.632  -5.500  0.00  0.00     0.312 HD
ENDBRANCH  29  30
ENDBRANCH  20  29
ENDBRANCH  15  16
ENDBRANCH  10  15
BRANCH  11  33
ATOM     33  C   UNL d   1       5.348   5.129  -3.722  0.00  0.00     0.198 C 
BRANCH  33  34
ATOM     34  O   UNL d   1       5.489   3.715  -3.731  0.00  0.00    -0.398 OA
ATOM     35  H   UNL d   1       6.358   3.515  -4.118  0.00  0.00     0.209 HD
ENDBRANCH  33  34
ENDBRANCH  11  33
ENDBRANCH   7   8
ENDBRANCH   2   7
BRANCH   1  36
ATOM     36  O   UNL d   1       0.604   3.157   1.399  0.00  0.00    -0.349 OA
BRANCH  36  37
ATOM     37  C   UNL d   1      -0.140   2.034   1.899  0.00  0.00     0.296 C 
ATOM     38  C   UNL d   1       0.616   0.762   2.382  0.00  0.00     0.303 C 
ATOM     39  C   UNL d   1       1.458   0.156   1.260  0.00  0.00     0.187 C 
ATOM     40  C   UNL d   1       0.521  -0.160   0.098  0.00  0.00     0.179 C 
ATOM     41  C   UNL d   1      -0.335   1.061  -0.298  0.00  0.00     0.183 C 
ATOM     42  O   UNL d   1      -1.042   1.568   0.856  0.00  0.00    -0.349 OA
BRANCH  38  43
ATOM     43  N   UNL d   1       1.343   0.887   3.639  0.00  0.00     0.090 N 
ATOM     44  H   UNL d   1       2.297   1.185   3.473  0.00  0.00     0.313 HD
ATOM     45  H   UNL d   1       1.419  -0.024   4.102  0.00  0.00     0.313 HD
ENDBRANCH  38  43
BRANCH  39  46
ATOM     46  O   UNL d   1       2.077  -1.049   1.711  0.00  0.00    -0.391 OA
ATOM     47  H   UNL d   1       1.387  -1.612   2.103  0.00  0.00     0.210 HD
ENDBRANCH  39  46
BRANCH  40  48
ATOM     48  O   UNL d   1       1.317  -0.568  -1.018  0.00  0.00    -0.390 OA
ATOM     49  H   UNL d   1       1.673  -1.448  -0.807  0.00  0.00     0.210 HD
ENDBRANCH  40  48
BRANCH  41  50
ATOM     50  C   UNL d   1      -1.324   0.679  -1.421  0.00  0.00     0.301 C 
BRANCH  50  51
ATOM     51  N   UNL d   1      -2.705   0.529  -0.983  0.00  0.00     0.080 N 
ATOM     52  H   UNL d   1      -3.292   0.357  -1.798  0.00  0.00     0.312 HD
ATOM     53  H   UNL d   1      -3.035   1.408  -0.585  0.00  0.00     0.312 HD
ENDBRANCH  50  51
ENDBRANCH  41  50
ENDBRANCH  36  37
ENDBRANCH   1  36
BRANCH   3  54
ATOM     54  O   UNL d   1       2.599   6.946   2.663  0.00  0.00    -0.391 OA
ATOM     55  H   UNL d   1       3.241   7.676   2.726  0.00  0.00     0.210 HD
ENDBRANCH   3  54
BRANCH   6  56
ATOM     56  N   UNL d   1       0.528   4.951   3.510  0.00  0.00     0.085 N 
ATOM     57  H   UNL d   1       0.951   5.875   3.374  0.00  0.00     0.313 HD
ATOM     58  H   UNL d   1       0.001   5.019   4.378  0.00  0.00     0.313 HD
ENDBRANCH   6  56
BRANCH   4  59
ATOM     59  N   UNL d   1       4.808   4.274   3.888  0.00  0.00     0.085 N 
ATOM     60  H   UNL d   1       5.038   4.087   2.915  0.00  0.00     0.313 HD
ATOM     61  H   UNL d   1       4.508   3.363   4.241  0.00  0.00     0.313 HD
ENDBRANCH   4  59
TORSDOF 22
