@<TRIPOS>MOLECULE
ligands/ligand.pdb
 88 91 0 0 0
SMALL
GASTEIGER

@<TRIPOS>ATOM
      1 C          -2.7766    0.8099   -3.6843 C.3     1  UNL1        0.1135
      2 H          -2.2020    1.4217   -2.9833 H       1  UNL1        0.0647
      3 O          -2.8485   -0.5138   -3.1242 O.3     1  UNL1       -0.3405
      4 C          -1.6214   -1.1920   -3.4395 C.3     1  UNL1        0.1884
      5 H          -0.9275   -1.0180   -2.6118 H       1  UNL1        0.0938
      6 C          -1.0945   -0.5472   -4.7244 C.3     1  UNL1        0.1345
      7 H          -1.0532   -1.2560   -5.5609 H       1  UNL1        0.0671
      8 O           0.2314   -0.0768   -4.5223 O.3     1  UNL1       -0.3841
      9 C          -2.0816    0.5781   -5.0218 C.3     1  UNL1        0.1205
     10 H          -2.8345    0.1694   -5.7106 H       1  UNL1        0.0651
     11 O          -1.4820    1.6578   -5.7173 O.3     1  UNL1       -0.3410
     12 C          -1.1266    2.8462   -5.0055 C.3     1  UNL1        0.1776
     13 H          -2.0609    3.3573   -4.7470 H       1  UNL1        0.0927
     14 O          -0.3589    2.6204   -3.8207 O.3     1  UNL1       -0.3425
     15 C          -0.1898    3.8308   -3.0713 C.3     1  UNL1        0.1022
     16 H          -1.1697    4.3102   -2.9434 H       1  UNL1        0.0636
     17 C           0.7357    4.7727   -3.8632 C.3     1  UNL1        0.1100
     18 H           0.8564    5.7236   -3.3310 H       1  UNL1        0.0646
     19 C           0.2065    5.0177   -5.2913 C.3     1  UNL1        0.1033
     20 H           1.0051    5.4638   -5.8959 H       1  UNL1        0.0637
     21 C          -0.3146    3.7365   -5.9708 C.3     1  UNL1        0.0853
     22 H          -0.9740    4.0124   -6.8039 H       1  UNL1        0.0535
     23 N           0.8095    3.0039   -6.5709 N.3     1  UNL1       -0.3211
     24 O          -0.8540    5.9788   -5.2508 O.3     1  UNL1       -0.3874
     25 O           2.0424    4.1941   -3.9737 O.3     1  UNL1       -0.3866
     26 C           0.3739    3.4809   -1.6848 C.3     1  UNL1        0.0222
     27 N          -0.6965    3.2949   -0.7076 N.3     1  UNL1       -0.3276
     28 O          -1.8127   -2.5838   -3.6808 O.3     1  UNL1       -0.3402
     29 C          -1.8641   -3.4577   -2.5463 C.3     1  UNL1        0.1166
     30 H          -2.1200   -4.4350   -2.9798 H       1  UNL1        0.0650
     31 C          -0.4968   -3.5885   -1.8385 C.3     1  UNL1        0.1055
     32 H          -0.0975   -2.5940   -1.6187 H       1  UNL1        0.0639
     33 C          -0.5809   -4.3910   -0.5175 C.3     1  UNL1        0.0355
     34 H           0.1962   -5.1643   -0.5129 H       1  UNL1        0.0485
     35 C          -1.9280   -5.1053   -0.3109 C.3     1  UNL1       -0.0175
     36 C          -3.1630   -4.2111   -0.5071 C.3     1  UNL1        0.0351
     37 H          -3.9772   -4.8632   -0.8537 H       1  UNL1        0.0485
     38 N          -3.6034   -3.6677    0.7856 N.3     1  UNL1       -0.3250
     39 C          -2.9601   -3.0873   -1.5383 C.3     1  UNL1        0.0990
     40 H          -2.6949   -2.1492   -1.0367 H       1  UNL1        0.0636
     41 O          -4.2078   -2.8744   -2.2005 O.3     1  UNL1       -0.3876
     42 N          -0.2869   -3.4976    0.6101 N.3     1  UNL1       -0.3250
     43 O           0.4144   -4.2655   -2.7220 O.3     1  UNL1       -0.3422
     44 C           1.4069   -3.4047   -3.3006 C.3     1  UNL1        0.1776
     45 H           0.8961   -2.5735   -3.7929 H       1  UNL1        0.0927
     46 O           2.3118   -2.8351   -2.3441 O.3     1  UNL1       -0.3425
     47 C           3.0573   -3.8156   -1.6086 C.3     1  UNL1        0.1022
     48 H           2.3522   -4.4658   -1.0759 H       1  UNL1        0.0636
     49 C           3.9021   -4.6676   -2.5678 C.3     1  UNL1        0.1100
     50 H           4.6900   -4.0609   -3.0319 H       1  UNL1        0.0646
     51 C           3.0353   -5.2735   -3.6776 C.3     1  UNL1        0.1033
     52 H           2.3872   -6.0609   -3.2739 H       1  UNL1        0.0637
     53 C           2.2212   -4.1683   -4.3598 C.3     1  UNL1        0.0853
     54 H           2.9200   -3.4694   -4.8379 H       1  UNL1        0.0535
     55 N           1.3457   -4.7162   -5.3908 N.3     1  UNL1       -0.3211
     56 O           3.9062   -5.8895   -4.6267 O.3     1  UNL1       -0.3874
     57 O           4.5509   -5.7092   -1.8386 O.3     1  UNL1       -0.3866
     58 C           3.8706   -3.0690   -0.5393 C.3     1  UNL1        0.0222
     59 N           4.9371   -2.2313   -1.0735 N.3     1  UNL1       -0.3276
     60 C          -4.1961    1.3360   -3.8118 C.3     1  UNL1        0.0730
     61 O          -4.7348    1.5237   -2.5090 O.3     1  UNL1       -0.3924
     62 H           0.2114    0.5865   -3.8116 H       1  UNL1        0.2101
     63 H           0.4600    2.1500   -7.0051 H       1  UNL1        0.1187
     64 H           1.4508    2.7006   -5.8392 H       1  UNL1        0.1187
     65 H          -1.4089    5.7993   -4.4746 H       1  UNL1        0.2100
     66 H           1.9651    3.2311   -3.8642 H       1  UNL1        0.2100
     67 H           1.0348    4.2755   -1.3208 H       1  UNL1        0.0448
     68 H           0.9701    2.5626   -1.7290 H       1  UNL1        0.0448
     69 H          -1.1509    4.1904   -0.5286 H       1  UNL1        0.1183
     70 H          -1.4150    2.6838   -1.0939 H       1  UNL1        0.1183
     71 H          -1.9888   -5.9220   -1.0438 H       1  UNL1        0.0297
     72 H          -1.9454   -5.5901    0.6734 H       1  UNL1        0.0297
     73 H          -4.1630   -2.8281    0.6393 H       1  UNL1        0.1185
     74 H          -4.2229   -4.3380    1.2397 H       1  UNL1        0.1185
     75 H          -4.0238   -2.5163   -3.0863 H       1  UNL1        0.2100
     76 H          -1.1477   -3.0958    0.9772 H       1  UNL1        0.1185
     77 H           0.1231   -4.0366    1.3717 H       1  UNL1        0.1185
     78 H           0.7998   -3.9592   -5.8080 H       1  UNL1        0.1187
     79 H           1.9134   -5.0897   -6.1485 H       1  UNL1        0.1187
     80 H           3.3654   -6.5070   -5.1511 H       1  UNL1        0.2100
     81 H           3.8590   -6.2633   -1.4331 H       1  UNL1        0.2100
     82 H           3.1952   -2.4319    0.0435 H       1  UNL1        0.0448
     83 H           4.2975   -3.7892    0.1671 H       1  UNL1        0.0448
     84 H           5.7392   -2.8126   -1.3122 H       1  UNL1        0.1183
     85 H           4.6327   -1.7895   -1.9394 H       1  UNL1        0.1183
     86 H          -4.8353    0.6347   -4.3584 H       1  UNL1        0.0584
     87 H          -4.2155    2.2993   -4.3268 H       1  UNL1        0.0584
     88 H          -5.7012    1.4569   -2.5819 H       1  UNL1        0.2095
@<TRIPOS>BOND
     1     1     2    1
     2     3     1    1
     3     4     3    1
     4     4     5    1
     5     6     4    1
     6     6     7    1
     7     8     6    1
     8     9     6    1
     9     9    10    1
    10     9     1    1
    11    11     9    1
    12    12    11    1
    13    12    13    1
    14    14    12    1
    15    15    14    1
    16    15    16    1
    17    17    15    1
    18    17    18    1
    19    19    17    1
    20    19    20    1
    21    21    19    1
    22    21    22    1
    23    21    12    1
    24    23    21    1
    25    24    19    1
    26    25    17    1
    27    26    15    1
    28    27    26    1
    29    28     4    1
    30    29    28    1
    31    29    30    1
    32    31    29    1
    33    31    32    1
    34    33    31    1
    35    33    34    1
    36    35    33    1
    37    36    35    1
    38    36    37    1
    39    38    36    1
    40    39    36    1
    41    39    40    1
    42    39    29    1
    43    41    39    1
    44    42    33    1
    45    43    31    1
    46    44    43    1
    47    44    45    1
    48    46    44    1
    49    47    46    1
    50    47    48    1
    51    49    47    1
    52    49    50    1
    53    51    49    1
    54    51    52    1
    55    53    51    1
    56    53    54    1
    57    53    44    1
    58    55    53    1
    59    56    51    1
    60    57    49    1
    61    58    47    1
    62    59    58    1
    63    60     1    1
    64    61    60    1
    65     8    62    1
    66    23    63    1
    67    23    64    1
    68    24    65    1
    69    25    66    1
    70    26    67    1
    71    26    68    1
    72    27    69    1
    73    27    70    1
    74    35    71    1
    75    35    72    1
    76    38    73    1
    77    38    74    1
    78    41    75    1
    79    42    76    1
    80    42    77    1
    81    55    78    1
    82    55    79    1
    83    56    80    1
    84    57    81    1
    85    58    82    1
    86    58    83    1
    87    59    84    1
    88    59    85    1
    89    60    86    1
    90    60    87    1
    91    61    88    1
