4QK8_2BA_A_201
 OpenBabel10281720503D
Coordinates from PDB:4QK8:A:201 Model:1 without hydrogens
 68 74  0  0  0  0  0  0  0  0999 V2000
  -49.6310   19.9710  -41.8060 P   0  0  1  0  0  0  0  0  0  0  0  0
  -49.1260   18.6060  -41.3980 O   0  0  0  0  0  0  0  0  0  0  0  0
  -49.1770   20.5900  -43.0990 O   0  0  0  0  0  0  0  0  0  0  0  0
  -51.2400   19.9420  -41.7780 O   0  0  0  0  0  0  0  0  0  0  0  0
  -51.9700   21.1600  -41.7930 C   0  0  0  0  0  0  0  0  0  0  0  0
  -53.4300   20.9140  -41.4340 C   0  0  1  0  0  0  0  0  0  0  0  0
  -53.9370   19.8530  -42.2350 O   0  0  0  0  0  0  0  0  0  0  0  0
  -53.6230   20.4420  -40.0090 C   0  0  1  0  0  0  0  0  0  0  0  0
  -53.9860   21.5070  -39.1390 O   0  0  0  0  0  0  0  0  0  0  0  0
  -54.7420   19.4260  -40.0680 C   0  0  1  0  0  0  0  0  0  0  0  0
  -55.9420   20.0750  -39.6490 O   0  0  0  0  0  0  0  0  0  0  0  0
  -54.8490   19.0190  -41.5250 C   0  0  2  0  0  0  0  0  0  0  0  0
  -54.4320   17.6060  -41.7480 N   0  0  0  0  0  0  0  0  0  0  0  0
  -53.1770   17.1230  -41.6540 C   0  0  0  0  0  0  0  0  0  0  0  0
  -53.1290   15.7910  -41.9270 N   0  0  0  0  0  0  0  0  0  0  0  0
  -54.3790   15.4030  -42.2130 C   0  0  0  0  0  0  0  0  0  0  0  0
  -55.0280   14.1380  -42.5970 C   0  0  0  0  0  0  0  0  0  0  0  0
  -54.3180   12.9920  -42.7240 N   0  0  0  0  0  0  0  0  0  0  0  0
  -56.3610   14.1660  -42.8000 N   0  0  0  0  0  0  0  0  0  0  0  0
  -57.0780   15.2970  -42.6760 C   0  0  0  0  0  0  0  0  0  0  0  0
  -56.5520   16.4810  -42.3350 N   0  0  0  0  0  0  0  0  0  0  0  0
  -55.2320   16.5960  -42.0910 C   0  0  0  0  0  0  0  0  0  0  0  0
  -53.0880   21.6050  -37.8210 P   0  0  2  0  0  0  0  0  0  0  0  0
  -52.9450   20.1970  -37.2810 O   0  0  0  0  0  0  0  0  0  0  0  0
  -53.6070   22.7120  -36.9410 O   0  0  0  0  0  0  0  0  0  0  0  0
  -51.7100   22.0330  -38.5100 O   0  0  0  0  0  0  0  0  0  0  0  0
  -50.5910   22.3160  -37.7070 C   0  0  0  0  0  0  0  0  0  0  0  0
  -49.3380   22.0930  -38.5340 C   0  0  1  0  0  0  0  0  0  0  0  0
  -48.2700   22.0500  -37.5930 O   0  0  0  0  0  0  0  0  0  0  0  0
  -49.3070   20.7770  -39.2860 C   0  0  1  0  0  0  0  0  0  0  0  0
  -49.2220   21.0410  -40.6750 O   0  0  0  0  0  0  0  0  0  0  0  0
  -48.0270   20.1010  -38.8570 C   0  0  1  0  0  0  0  0  0  0  0  0
  -47.0450   20.3570  -39.8600 O   0  0  0  0  0  0  0  0  0  0  0  0
  -47.6010   20.7980  -37.5840 C   0  0  2  0  0  0  0  0  0  0  0  0
  -48.0590   19.9920  -36.4190 N   0  0  0  0  0  0  0  0  0  0  0  0
  -49.3210   19.5720  -36.1900 C   0  0  0  0  0  0  0  0  0  0  0  0
  -49.4180   18.8330  -35.0550 N   0  0  0  0  0  0  0  0  0  0  0  0
  -48.1870   18.7710  -34.5380 C   0  0  0  0  0  0  0  0  0  0  0  0
  -47.5960   18.1520  -33.3460 C   0  0  0  0  0  0  0  0  0  0  0  0
  -48.3750   17.4460  -32.4860 N   0  0  0  0  0  0  0  0  0  0  0  0
  -46.2680   18.3180  -33.1610 N   0  0  0  0  0  0  0  0  0  0  0  0
  -45.5110   19.0240  -34.0170 C   0  0  0  0  0  0  0  0  0  0  0  0
  -45.9860   19.6160  -35.1240 N   0  0  0  0  0  0  0  0  0  0  0  0
  -47.2960   19.5260  -35.4330 C   0  0  0  0  0  0  0  0  0  0  0  0
  -49.3921   19.9959  -43.8350 H   0  0  0  0  0  0  0  0  0  0  0  0
  -51.9160   21.5904  -42.7711 H   0  0  0  0  0  0  0  0  0  0  0  0
  -51.5447   21.8262  -41.0717 H   0  0  0  0  0  0  0  0  0  0  0  0
  -53.9258   21.8504  -41.5833 H   0  0  0  0  0  0  0  0  0  0  0  0
  -52.7128   20.0339  -39.6220 H   0  0  0  0  0  0  0  0  0  0  0  0
  -54.5715   18.5736  -39.4441 H   0  0  0  0  0  0  0  0  0  0  0  0
  -56.1037   20.8495  -40.2102 H   0  0  0  0  0  0  0  0  0  0  0  0
  -55.8651   19.1162  -41.8461 H   0  0  0  0  0  0  0  0  0  0  0  0
  -52.3537   17.6935  -41.4055 H   0  0  0  0  0  0  0  0  0  0  0  0
  -53.3455   12.9959  -42.5708 H   0  0  0  0  0  0  0  0  0  0  0  0
  -54.7743   12.1549  -42.9695 H   0  0  0  0  0  0  0  0  0  0  0  0
  -58.0934   15.2501  -42.8541 H   0  0  0  0  0  0  0  0  0  0  0  0
  -54.4419   22.4354  -36.5320 H   0  0  0  0  0  0  0  0  0  0  0  0
  -50.5830   21.6664  -36.8568 H   0  0  0  0  0  0  0  0  0  0  0  0
  -50.6305   23.3295  -37.3661 H   0  0  0  0  0  0  0  0  0  0  0  0
  -49.2810   22.8698  -39.2677 H   0  0  0  0  0  0  0  0  0  0  0  0
  -50.1753   20.1833  -39.0898 H   0  0  0  0  0  0  0  0  0  0  0  0
  -48.1453   19.0469  -38.7161 H   0  0  0  0  0  0  0  0  0  0  0  0
  -46.9464   21.3146  -39.9790 H   0  0  0  0  0  0  0  0  0  0  0  0
  -46.5398   20.9183  -37.5185 H   0  0  0  0  0  0  0  0  0  0  0  0
  -50.1201   19.7876  -36.8064 H   0  0  0  0  0  0  0  0  0  0  0  0
  -49.3392   17.3506  -32.6603 H   0  0  0  0  0  0  0  0  0  0  0  0
  -47.9754   17.0297  -31.6884 H   0  0  0  0  0  0  0  0  0  0  0  0
  -44.5040   19.1168  -33.8112 H   0  0  0  0  0  0  0  0  0  0  0  0
  1  2  2  1  0  0  0
  1  3  1  0  0  0  0
  1  4  1  0  0  0  0
  1 31  1  0  0  0  0
  3 45  1  0  0  0  0
  4  5  1  0  0  0  0
  5 46  1  0  0  0  0
  5 47  1  0  0  0  0
  6  5  1  0  0  0  0
  6  7  1  0  0  0  0
  6  8  1  0  0  0  0
  6 48  1  6  0  0  0
  7 12  1  0  0  0  0
  8  9  1  0  0  0  0
  8 10  1  0  0  0  0
  8 49  1  1  0  0  0
  9 23  1  0  0  0  0
 10 11  1  0  0  0  0
 10 12  1  0  0  0  0
 10 50  1  1  0  0  0
 11 51  1  0  0  0  0
 12 13  1  0  0  0  0
 12 52  1  6  0  0  0
 13 14  1  0  0  0  0
 13 22  1  0  0  0  0
 14 15  2  0  0  0  0
 14 53  1  0  0  0  0
 15 16  1  0  0  0  0
 16 17  2  0  0  0  0
 16 22  1  0  0  0  0
 17 18  1  0  0  0  0
 17 19  1  0  0  0  0
 18 54  1  0  0  0  0
 18 55  1  0  0  0  0
 19 20  2  0  0  0  0
 20 21  1  0  0  0  0
 20 56  1  0  0  0  0
 21 22  2  0  0  0  0
 23 24  2  1  0  0  0
 23 25  1  0  0  0  0
 23 26  1  0  0  0  0
 25 57  1  0  0  0  0
 26 27  1  0  0  0  0
 27 58  1  0  0  0  0
 27 59  1  0  0  0  0
 28 27  1  0  0  0  0
 28 29  1  0  0  0  0
 28 30  1  0  0  0  0
 28 60  1  6  0  0  0
 29 34  1  0  0  0  0
 30 31  1  0  0  0  0
 30 32  1  0  0  0  0
 30 61  1  1  0  0  0
 32 33  1  0  0  0  0
 32 34  1  0  0  0  0
 32 62  1  1  0  0  0
 33 63  1  0  0  0  0
 34 35  1  0  0  0  0
 34 64  1  1  0  0  0
 35 36  1  0  0  0  0
 35 44  1  0  0  0  0
 36 37  2  0  0  0  0
 36 65  1  0  0  0  0
 37 38  1  0  0  0  0
 38 39  2  0  0  0  0
 38 44  1  0  0  0  0
 39 40  1  0  0  0  0
 39 41  1  0  0  0  0
 40 66  1  0  0  0  0
 40 67  1  0  0  0  0
 41 42  2  0  0  0  0
 42 43  1  0  0  0  0
 42 68  1  0  0  0  0
 43 44  2  0  0  0  0
A    1
P
A    2
O1P
A    3
O2P
A    4
O5'
A    5
C5'
A    6
C4'
A    7
O4'
A    8
C3'
A    9
O3'
A   10
C2'
A   11
O2'
A   12
C1'
A   13
N9
A   14
C8
A   15
N7
A   16
C5
A   17
C6
A   18
N6
A   19
N1
A   20
C2
A   21
N3
A   22
C4
A   23
P1
A   24
O1P1
A   25
O2P1
A   26
O5'1
A   27
C5'1
A   28
C4'1
A   29
O4'1
A   30
C3'1
A   31
O3'1
A   32
C2'1
A   33
O2'1
A   34
C1'1
A   35
N91
A   36
C81
A   37
N71
A   38
C51
A   39
C61
A   40
N61
A   41
N11
A   42
C21
A   43
N31
A   44
C41
M  END
>  <InstanceId>
4QK8_2BA_A_201

>  <ChemCompId>
2BA

>  <PdbId>
4QK8

>  <ChainId>
A

>  <ResidueNumber>
201

>  <InsertionCode>


>  <Model>
1

>  <AltIds>


>  <MissingHeavyAtoms>
0

>  <ObservedFormula>
C20 N10 O12 P2

>  <Name>
(2R,3R,3aS,5R,7aR,9R,10R,10aS,12R,14aR)-2,9-bis(6-amino-9H-purin-9-yl)octahydro-2H,7H-difuro[3,2-d:3',2'-j][1,3,7,9,2,8]tetraoxadiphosphacyclododecine-3,5,10,12-tetrol 5,12-dioxide

>  <SystematicName>


>  <Synonyms>
bis-(3',5')-cyclic-dimeric-Adenosine-monophosphate

>  <Type>
NON-POLYMER

>  <Formula>
C20 H24 N10 O12 P2

>  <MolecularWeight>
658.412

>  <ModifiedDate>
2011-06-04

>  <Parent>


>  <OneLetterCode>


>  <SubcomponentList>


>  <AmbiguousFlag>
N

>  <InChI>
InChI=1S/C20H24N10O12P2/c21-15-9-17(25-3-23-15)29(5-27-9)19-11(31)13-7(39-19)1-37-43(33,34)42-14-8(2-38-44(35,36)41-13)40-20(12(14)32)30-6-28-10-16(22)24-4-26-18(10)30/h3-8,11-14,19-20,31-32H,1-2H2,(H,33,34)(H,35,36)(H2,21,23,25)(H2,22,24,26)/t7-,8-,11-,12-,13-,14-,19-,20-/m1/s1

>  <InChIKey>
PDXMFTWFFKBFIN-XPWFQUROSA-N

>  <SMILES>
c1nc(c2c(n1)n(cn2)[C@H]3[C@@H]([C@H]4[C@H](O3)CO[P@](=O)(O[C@@H]5[C@@H](CO[P@](=O)(O4)O)O[C@H]([C@@H]5O)n6cnc7c6ncnc7N)O)O)N

$$$$
