@<TRIPOS>MOLECULE
4QK8_2BA_A_201
 44 50 0 0 0
SMALL
GASTEIGER
****
Coordinates from PDB:4QK8:A:201 Model:1 without hydrogens
@<TRIPOS>ATOM
      1 P         -49.6310   19.9710  -41.8060 P.3     1  UNL1        0.2141
      2 O         -49.1260   18.6060  -41.3980 O.2     1  UNL1       -0.5172
      3 O         -49.1770   20.5900  -43.0990 O.3     1  UNL1       -0.4373
      4 O         -51.2400   19.9420  -41.7780 O.3     1  UNL1       -0.3114
      5 C         -51.9700   21.1600  -41.7930 C.3     1  UNL1        0.1812
      6 C         -53.4300   20.9140  -41.4340 C.3     1  UNL1        0.1773
      7 O         -53.9370   19.8530  -42.2350 O.3     1  UNL1       -0.3307
      8 C         -53.6230   20.4420  -40.0090 C.3     1  UNL1        0.1860
      9 O         -53.9860   21.5070  -39.1390 O.3     1  UNL1       -0.3112
     10 C         -54.7420   19.4260  -40.0680 C.3     1  UNL1        0.2309
     11 O         -55.9420   20.0750  -39.6490 O.3     1  UNL1       -0.2156
     12 C         -54.8490   19.0190  -41.5250 C.3     1  UNL1        0.2408
     13 N         -54.4320   17.6060  -41.7480 N.ar    1  UNL1       -0.2693
     14 C         -53.1770   17.1230  -41.6540 C.ar    1  UNL1        0.1816
     15 N         -53.1290   15.7910  -41.9270 N.ar    1  UNL1       -0.2193
     16 C         -54.3790   15.4030  -42.2130 C.ar    1  UNL1        0.1518
     17 C         -55.0280   14.1380  -42.5970 C.ar    1  UNL1        0.1919
     18 N         -54.3180   12.9920  -42.7240 N.pl3   1  UNL1       -0.1054
     19 N         -56.3610   14.1660  -42.8000 N.ar    1  UNL1       -0.2040
     20 C         -57.0780   15.2970  -42.6760 C.ar    1  UNL1        0.2016
     21 N         -56.5520   16.4810  -42.3350 N.ar    1  UNL1       -0.2048
     22 C         -55.2320   16.5960  -42.0910 C.ar    1  UNL1        0.1692
     23 P         -53.0880   21.6050  -37.8210 P.3     1  UNL1        0.2141
     24 O         -52.9450   20.1970  -37.2810 O.2     1  UNL1       -0.5172
     25 O         -53.6070   22.7120  -36.9410 O.3     1  UNL1       -0.4373
     26 O         -51.7100   22.0330  -38.5100 O.3     1  UNL1       -0.3114
     27 C         -50.5910   22.3160  -37.7070 C.3     1  UNL1        0.1812
     28 C         -49.3380   22.0930  -38.5340 C.3     1  UNL1        0.1773
     29 O         -48.2700   22.0500  -37.5930 O.3     1  UNL1       -0.3307
     30 C         -49.3070   20.7770  -39.2860 C.3     1  UNL1        0.1860
     31 O         -49.2220   21.0410  -40.6750 O.3     1  UNL1       -0.3112
     32 C         -48.0270   20.1010  -38.8570 C.3     1  UNL1        0.2309
     33 O         -47.0450   20.3570  -39.8600 O.3     1  UNL1       -0.2156
     34 C         -47.6010   20.7980  -37.5840 C.3     1  UNL1        0.2408
     35 N         -48.0590   19.9920  -36.4190 N.ar    1  UNL1       -0.2693
     36 C         -49.3210   19.5720  -36.1900 C.ar    1  UNL1        0.1816
     37 N         -49.4180   18.8330  -35.0550 N.ar    1  UNL1       -0.2193
     38 C         -48.1870   18.7710  -34.5380 C.ar    1  UNL1        0.1518
     39 C         -47.5960   18.1520  -33.3460 C.ar    1  UNL1        0.1919
     40 N         -48.3750   17.4460  -32.4860 N.pl3   1  UNL1       -0.1054
     41 N         -46.2680   18.3180  -33.1610 N.ar    1  UNL1       -0.2040
     42 C         -45.5110   19.0240  -34.0170 C.ar    1  UNL1        0.2016
     43 N         -45.9860   19.6160  -35.1240 N.ar    1  UNL1       -0.2048
     44 C         -47.2960   19.5260  -35.4330 C.ar    1  UNL1        0.1692
@<TRIPOS>BOND
     1     1     2    2
     2     1     3    1
     3     1     4    1
     4     1    31    1
     5     4     5    1
     6     6     5    1
     7     6     7    1
     8     6     8    1
     9     7    12    1
    10     8     9    1
    11     8    10    1
    12     9    23    1
    13    10    11    1
    14    10    12    1
    15    12    13    1
    16    13    14   ar
    17    13    22   ar
    18    14    15   ar
    19    15    16   ar
    20    16    17   ar
    21    16    22   ar
    22    17    18    1
    23    17    19   ar
    24    19    20   ar
    25    20    21   ar
    26    21    22   ar
    27    23    24    2
    28    23    25    1
    29    23    26    1
    30    26    27    1
    31    28    27    1
    32    28    29    1
    33    28    30    1
    34    29    34    1
    35    30    31    1
    36    30    32    1
    37    32    33    1
    38    32    34    1
    39    34    35    1
    40    35    36   ar
    41    35    44   ar
    42    36    37   ar
    43    37    38   ar
    44    38    39   ar
    45    38    44   ar
    46    39    40    1
    47    39    41   ar
    48    41    42   ar
    49    42    43   ar
    50    43    44   ar
