temp2.pdb
 OpenBabel10091713583D

 72 78  0  0  1  0  0  0  0  0999 V2000
  -49.6310   19.9710  -41.8060 P   0  0  1  0  0  0  0  0  0  0  0  0
  -49.2220   21.0410  -40.6750 O   0  0  0  0  0  0  0  0  0  0  0  0
  -49.3070   20.7770  -39.2860 C   0  0  2  0  0  0  0  0  0  0  0  0
  -49.3380   22.0930  -38.5340 C   0  0  1  0  0  0  0  0  0  0  0  0
  -50.5910   22.3160  -37.7070 C   0  0  0  0  0  0  0  0  0  0  0  0
  -51.7100   22.0330  -38.5100 O   0  0  0  0  0  0  0  0  0  0  0  0
  -53.0880   21.6050  -37.8210 P   0  0  2  0  0  0  0  0  0  0  0  0
  -53.6070   22.7120  -36.9410 O   0  0  0  0  0  0  0  0  0  0  0  0
  -52.9450   20.1970  -37.2810 O   0  0  0  0  0  0  0  0  0  0  0  0
  -53.9860   21.5070  -39.1390 O   0  0  0  0  0  0  0  0  0  0  0  0
  -53.6230   20.4420  -40.0090 C   0  0  2  0  0  0  0  0  0  0  0  0
  -53.4300   20.9140  -41.4340 C   0  0  1  0  0  0  0  0  0  0  0  0
  -51.9700   21.1600  -41.7930 C   0  0  0  0  0  0  0  0  0  0  0  0
  -53.9370   19.8530  -42.2350 O   0  0  0  0  0  0  0  0  0  0  0  0
  -54.8490   19.0190  -41.5250 C   0  0  1  0  0  0  0  0  0  0  0  0
  -54.4320   17.6060  -41.7480 N   0  0  0  0  0  0  0  0  0  0  0  0
  -55.2320   16.5960  -42.0910 C   0  0  0  0  0  0  0  0  0  0  0  0
  -56.5520   16.4810  -42.3350 N   0  0  0  0  0  0  0  0  0  0  0  0
  -57.0780   15.2970  -42.6760 C   0  0  0  0  0  0  0  0  0  0  0  0
  -56.3610   14.1660  -42.8000 N   0  0  0  0  0  0  0  0  0  0  0  0
  -55.0280   14.1380  -42.5970 C   0  0  0  0  0  0  0  0  0  0  0  0
  -54.3180   12.9920  -42.7240 N   0  0  0  0  0  0  0  0  0  0  0  0
  -54.3790   15.4030  -42.2130 C   0  0  0  0  0  0  0  0  0  0  0  0
  -53.1290   15.7910  -41.9270 N   0  0  0  0  0  0  0  0  0  0  0  0
  -53.1770   17.1230  -41.6540 C   0  0  0  0  0  0  0  0  0  0  0  0
  -54.7420   19.4260  -40.0680 C   0  0  2  0  0  0  0  0  0  0  0  0
  -55.9420   20.0750  -39.6490 O   0  0  0  0  0  0  0  0  0  0  0  0
  -48.2700   22.0500  -37.5930 O   0  0  0  0  0  0  0  0  0  0  0  0
  -47.6010   20.7980  -37.5840 C   0  0  1  0  0  0  0  0  0  0  0  0
  -48.0590   19.9920  -36.4190 N   0  0  0  0  0  0  0  0  0  0  0  0
  -47.2960   19.5260  -35.4330 C   0  0  0  0  0  0  0  0  0  0  0  0
  -45.9860   19.6160  -35.1240 N   0  0  0  0  0  0  0  0  0  0  0  0
  -45.5110   19.0240  -34.0170 C   0  0  0  0  0  0  0  0  0  0  0  0
  -46.2680   18.3180  -33.1610 N   0  0  0  0  0  0  0  0  0  0  0  0
  -47.5960   18.1520  -33.3460 C   0  0  0  0  0  0  0  0  0  0  0  0
  -48.3750   17.4460  -32.4860 N   0  0  0  0  0  0  0  0  0  0  0  0
  -48.1870   18.7710  -34.5380 C   0  0  0  0  0  0  0  0  0  0  0  0
  -49.4180   18.8330  -35.0550 N   0  0  0  0  0  0  0  0  0  0  0  0
  -49.3210   19.5720  -36.1900 C   0  0  0  0  0  0  0  0  0  0  0  0
  -48.0270   20.1010  -38.8570 C   0  0  2  0  0  0  0  0  0  0  0  0
  -47.0450   20.3570  -39.8600 O   0  0  0  0  0  0  0  0  0  0  0  0
  -51.2400   19.9420  -41.7780 O   0  0  0  0  0  0  0  0  0  0  0  0
  -49.1770   20.5900  -43.0990 O   0  0  0  0  0  0  0  0  0  0  0  0
  -49.1260   18.6060  -41.3980 O   0  0  0  0  0  0  0  0  0  0  0  0
  -50.1753   20.1833  -39.0898 H   0  0  0  0  0  0  0  0  0  0  0  0
  -49.2810   22.8698  -39.2677 H   0  0  0  0  0  0  0  0  0  0  0  0
  -50.6304   23.3335  -37.3782 H   0  0  0  0  0  0  0  0  0  0  0  0
  -50.5834   21.6766  -36.8491 H   0  0  0  0  0  0  0  0  0  0  0  0
  -53.6331   23.5404  -37.4450 H   0  0  0  0  0  0  0  0  0  0  0  0
  -52.7128   20.0339  -39.6220 H   0  0  0  0  0  0  0  0  0  0  0  0
  -53.9258   21.8504  -41.5833 H   0  0  0  0  0  0  0  0  0  0  0  0
  -51.5419   21.8354  -41.0820 H   0  0  0  0  0  0  0  0  0  0  0  0
  -51.9222   21.5789  -42.7764 H   0  0  0  0  0  0  0  0  0  0  0  0
  -55.8651   19.1162  -41.8461 H   0  0  0  0  0  0  0  0  0  0  0  0
  -57.5464   15.4498  -43.6258 H   0  0  0  0  0  0  0  0  0  0  0  0
  -57.6623   15.0748  -41.8076 H   0  0  0  0  0  0  0  0  0  0  0  0
  -54.7723   12.1575  -42.9818 H   0  0  0  0  0  0  0  0  0  0  0  0
  -53.3475   12.9933  -42.5586 H   0  0  0  0  0  0  0  0  0  0  0  0
  -52.8160   17.2866  -40.6601 H   0  0  0  0  0  0  0  0  0  0  0  0
  -52.5686   17.6328  -42.3715 H   0  0  0  0  0  0  0  0  0  0  0  0
  -54.5715   18.5736  -39.4441 H   0  0  0  0  0  0  0  0  0  0  0  0
  -56.1037   20.8495  -40.2102 H   0  0  0  0  0  0  0  0  0  0  0  0
  -46.5398   20.9183  -37.5185 H   0  0  0  0  0  0  0  0  0  0  0  0
  -45.0687   19.8063  -33.4363 H   0  0  0  0  0  0  0  0  0  0  0  0
  -44.9074   18.2497  -34.4424 H   0  0  0  0  0  0  0  0  0  0  0  0
  -47.9758   17.0318  -31.6871 H   0  0  0  0  0  0  0  0  0  0  0  0
  -49.3388   17.3485  -32.6616 H   0  0  0  0  0  0  0  0  0  0  0  0
  -49.6410   18.9749  -37.0183 H   0  0  0  0  0  0  0  0  0  0  0  0
  -49.9388   20.4376  -36.0720 H   0  0  0  0  0  0  0  0  0  0  0  0
  -48.1453   19.0469  -38.7161 H   0  0  0  0  0  0  0  0  0  0  0  0
  -46.9464   21.3146  -39.9790 H   0  0  0  0  0  0  0  0  0  0  0  0
  -49.3921   19.9959  -43.8350 H   0  0  0  0  0  0  0  0  0  0  0  0
  1 44  2  1  0  0  0
  1 43  1  0  0  0  0
  1 42  1  0  0  0  0
  1  2  1  0  0  0  0
  3  2  1  0  0  0  0
  3 40  1  0  0  0  0
  3  4  1  0  0  0  0
  3 45  1  1  0  0  0
  4 28  1  0  0  0  0
  4  5  1  0  0  0  0
  4 46  1  6  0  0  0
  5  6  1  0  0  0  0
  5 47  1  0  0  0  0
  5 48  1  0  0  0  0
  6  7  1  0  0  0  0
  7 10  1  0  0  0  0
  7  9  2  1  0  0  0
  7  8  1  0  0  0  0
  8 49  1  0  0  0  0
 11 10  1  0  0  0  0
 11 26  1  0  0  0  0
 11 12  1  0  0  0  0
 11 50  1  1  0  0  0
 12 14  1  0  0  0  0
 12 13  1  0  0  0  0
 12 51  1  6  0  0  0
 13 42  1  0  0  0  0
 13 52  1  0  0  0  0
 13 53  1  0  0  0  0
 14 15  1  0  0  0  0
 15 16  1  0  0  0  0
 15 26  1  0  0  0  0
 15 54  1  6  0  0  0
 16 25  1  0  0  0  0
 16 17  1  0  0  0  0
 17 23  1  0  0  0  0
 17 18  2  0  0  0  0
 18 19  1  0  0  0  0
 19 20  1  0  0  0  0
 19 55  1  0  0  0  0
 19 56  1  0  0  0  0
 20 21  2  0  0  0  0
 21 23  1  0  0  0  0
 21 22  1  0  0  0  0
 22 57  1  0  0  0  0
 22 58  1  0  0  0  0
 23 24  2  0  0  0  0
 24 25  1  0  0  0  0
 25 59  1  0  0  0  0
 25 60  1  0  0  0  0
 26 27  1  0  0  0  0
 26 61  1  1  0  0  0
 27 62  1  0  0  0  0
 28 29  1  0  0  0  0
 29 30  1  0  0  0  0
 29 40  1  0  0  0  0
 29 63  1  1  0  0  0
 30 39  1  0  0  0  0
 30 31  1  0  0  0  0
 31 37  1  0  0  0  0
 31 32  2  0  0  0  0
 32 33  1  0  0  0  0
 33 34  1  0  0  0  0
 33 64  1  0  0  0  0
 33 65  1  0  0  0  0
 34 35  2  0  0  0  0
 35 37  1  0  0  0  0
 35 36  1  0  0  0  0
 36 66  1  0  0  0  0
 36 67  1  0  0  0  0
 37 38  2  0  0  0  0
 38 39  1  0  0  0  0
 39 68  1  0  0  0  0
 39 69  1  0  0  0  0
 40 41  1  0  0  0  0
 40 70  1  1  0  0  0
 41 71  1  0  0  0  0
 43 72  1  0  0  0  0
M  END
$$$$
