REMARK  2 active torsions:
REMARK  status: ('A' for Active; 'I' for Inactive)
REMARK    1  A    between atoms: C_12  and  N_13 
REMARK    2  A    between atoms: C_34  and  N_35 
ROOT
ATOM      1  P   UNL d   1     -49.631  19.971 -41.806  0.00  0.00     0.410 P 
ATOM      2  O   UNL d   1     -49.126  18.606 -41.398  0.00  0.00    -0.624 OA
ATOM      3  O   UNL d   1     -49.177  20.590 -43.099  0.00  0.00    -0.624 OA
ATOM      4  O   UNL d   1     -51.240  19.942 -41.778  0.00  0.00    -0.268 OA
ATOM      5  C   UNL d   1     -51.970  21.160 -41.793  0.00  0.00     0.187 C 
ATOM      6  C   UNL d   1     -53.430  20.914 -41.434  0.00  0.00     0.178 C 
ATOM      7  O   UNL d   1     -53.937  19.853 -42.235  0.00  0.00    -0.331 OA
ATOM      8  C   UNL d   1     -53.623  20.442 -40.009  0.00  0.00     0.191 C 
ATOM      9  O   UNL d   1     -53.986  21.507 -39.139  0.00  0.00    -0.268 OA
ATOM     10  C   UNL d   1     -54.742  19.426 -40.068  0.00  0.00     0.231 C 
ATOM     11  O   UNL d   1     -55.942  20.075 -39.649  0.00  0.00    -0.216 OA
ATOM     12  C   UNL d   1     -54.849  19.019 -41.525  0.00  0.00     0.241 C 
ATOM     13  P   UNL d   1     -53.088  21.605 -37.821  0.00  0.00     0.410 P 
ATOM     14  O   UNL d   1     -52.945  20.197 -37.281  0.00  0.00    -0.624 OA
ATOM     15  O   UNL d   1     -53.607  22.712 -36.941  0.00  0.00    -0.624 OA
ATOM     16  O   UNL d   1     -51.710  22.033 -38.510  0.00  0.00    -0.268 OA
ATOM     17  C   UNL d   1     -50.591  22.316 -37.707  0.00  0.00     0.187 C 
ATOM     18  C   UNL d   1     -49.338  22.093 -38.534  0.00  0.00     0.178 C 
ATOM     19  O   UNL d   1     -48.270  22.050 -37.593  0.00  0.00    -0.331 OA
ATOM     20  C   UNL d   1     -49.307  20.777 -39.286  0.00  0.00     0.191 C 
ATOM     21  O   UNL d   1     -49.222  21.041 -40.675  0.00  0.00    -0.268 OA
ATOM     22  C   UNL d   1     -48.027  20.101 -38.857  0.00  0.00     0.231 C 
ATOM     23  O   UNL d   1     -47.045  20.357 -39.860  0.00  0.00    -0.216 OA
ATOM     24  C   UNL d   1     -47.601  20.798 -37.584  0.00  0.00     0.241 C 
ENDROOT
BRANCH  12  25
ATOM     25  N   UNL d   1     -54.432  17.606 -41.748  0.00  0.00    -0.270 N 
ATOM     26  C   UNL d   1     -53.177  17.123 -41.654  0.00  0.00     0.182 A 
ATOM     27  N   UNL d   1     -53.129  15.791 -41.927  0.00  0.00    -0.219 NA
ATOM     28  C   UNL d   1     -54.379  15.403 -42.213  0.00  0.00     0.155 A 
ATOM     29  C   UNL d   1     -55.028  14.138 -42.597  0.00  0.00     0.206 A 
ATOM     30  C   UNL d   1     -55.232  16.596 -42.091  0.00  0.00     0.170 A 
ATOM     31  N   UNL d   1     -54.318  12.992 -42.724  0.00  0.00    -0.125 N 
ATOM     32  N   UNL d   1     -56.361  14.166 -42.800  0.00  0.00    -0.202 NA
ATOM     33  C   UNL d   1     -57.078  15.297 -42.676  0.00  0.00     0.202 A 
ATOM     34  N   UNL d   1     -56.552  16.481 -42.335  0.00  0.00    -0.205 NA
ENDBRANCH  12  25
BRANCH  24  35
ATOM     35  N   UNL d   1     -48.059  19.992 -36.419  0.00  0.00    -0.270 N 
ATOM     36  C   UNL d   1     -49.321  19.572 -36.190  0.00  0.00     0.182 A 
ATOM     37  N   UNL d   1     -49.418  18.833 -35.055  0.00  0.00    -0.219 NA
ATOM     38  C   UNL d   1     -48.187  18.771 -34.538  0.00  0.00     0.155 A 
ATOM     39  C   UNL d   1     -47.596  18.152 -33.346  0.00  0.00     0.206 A 
ATOM     40  C   UNL d   1     -47.296  19.526 -35.433  0.00  0.00     0.170 A 
ATOM     41  N   UNL d   1     -48.375  17.446 -32.486  0.00  0.00    -0.125 N 
ATOM     42  N   UNL d   1     -46.268  18.318 -33.161  0.00  0.00    -0.202 NA
ATOM     43  C   UNL d   1     -45.511  19.024 -34.017  0.00  0.00     0.202 A 
ATOM     44  N   UNL d   1     -45.986  19.616 -35.124  0.00  0.00    -0.205 NA
ENDBRANCH  24  35
TORSDOF 2
