@<TRIPOS>MOLECULE
3DIR_IEL_A_175
 30 29 0 0 0
SMALL
GASTEIGER

@<TRIPOS>ATOM
      1 O1          2.3635    1.7445    2.3757 O.2     1  <1>        -0.2493
      2 C1          2.4439    2.1354    1.2230 C.2     1  <1>         0.3217
      3 O2          2.1951    3.4138    0.8396 O.3     1  <1>        -0.4795
      4 C2          2.8729    1.2733    0.0278 C.3     1  <1>         0.1032
      5 H1          2.3492    0.3137    0.1049 H       1  <1>         0.0574
      6 N1          2.4280    1.9345   -1.2321 N.3     1  <1>        -0.3184
      7 C3          4.3903    1.0422    0.0362 C.3     1  <1>        -0.0273
      8 C4          5.2412    2.3147   -0.1200 C.3     1  <1>        -0.0477
      9 C5          6.7507    2.0359   -0.1594 C.3     1  <1>        -0.0168
     10 C6          7.1549    1.1812   -1.3590 C.3     1  <1>         0.0779
     11 N2          8.5904    1.0110   -1.4321 N.pl3   1  <1>        -0.2381
     12 C7          9.2319    0.1904   -2.3200 C.2     1  <1>         0.2750
     13 N3          8.6579   -0.4464   -3.2825 N.2     1  <1>        -0.1042
     14 C8         10.7250    0.0141   -2.1777 C.3     1  <1>         0.0384
     15 H2          2.3461    3.4445   -0.1380 H       1  <1>         0.2951
     16 H3          1.4046    1.8631   -1.2771 H       1  <1>         0.1190
     17 H4          2.7454    1.3570   -2.0182 H       1  <1>         0.1190
     18 H5          4.6197    0.3405   -0.7730 H       1  <1>         0.0286
     19 H6          4.6742    0.5460    0.9730 H       1  <1>         0.0286
     20 H7          5.0431    2.9914    0.7202 H       1  <1>         0.0267
     21 H8          4.9584    2.8526   -1.0322 H       1  <1>         0.0267
     22 H9          7.0634    1.5496    0.7726 H       1  <1>         0.0301
     23 H10         7.2819    2.9966   -0.2007 H       1  <1>         0.0301
     24 H11         6.8006    1.6539   -2.2817 H       1  <1>         0.0724
     25 H12         6.6927    0.1928   -1.2820 H       1  <1>         0.0724
     26 H13         9.1349    1.4023   -0.6706 H       1  <1>         0.2910
     27 H14         7.6585   -0.2457   -3.2936 H       1  <1>         0.3629
     28 H15        11.1108    0.5653   -1.3167 H       1  <1>         0.0351
     29 H16        11.2158    0.3741   -3.0849 H       1  <1>         0.0351
     30 H17        10.9518   -1.0492   -2.0513 H       1  <1>         0.0351
@<TRIPOS>BOND
     1     1     2    2
     2     2     3    1
     3     2     4    1
     4     3    15    1
     5     4     5    1
     6     4     6    1
     7     4     7    1
     8     6    16    1
     9     6    17    1
    10     7     8    1
    11     7    18    1
    12     7    19    1
    13     8     9    1
    14     8    20    1
    15     8    21    1
    16     9    10    1
    17     9    22    1
    18     9    23    1
    19    10    11    1
    20    10    24    1
    21    10    25    1
    22    11    12    1
    23    11    26    1
    24    12    13    2
    25    12    14    1
    26    13    27    1
    27    14    28    1
    28    14    29    1
    29    14    30    1
