REMARK  9 active torsions:
REMARK  status: ('A' for Active; 'I' for Inactive)
REMARK    1  A    between atoms: C1_2  and  O2_3 
REMARK    2  A    between atoms: C1_2  and  C2_4 
REMARK    3  A    between atoms: C2_4  and  N1_5 
REMARK    4  A    between atoms: C2_4  and  C3_6 
REMARK    5  A    between atoms: C3_6  and  C4_7 
REMARK    6  A    between atoms: C4_7  and  C5_8 
REMARK    7  A    between atoms: C5_8  and  C6_9 
REMARK    8  A    between atoms: C6_9  and  N2_10 
REMARK    9  A    between atoms: N2_10  and  C7_11 
ROOT
ATOM      1  C3  <1> d           4.390   1.042   0.036  0.00  0.00     0.046 C 
ENDROOT
BRANCH   1   2
ATOM      2  C2  <1> d           2.873   1.273   0.028  0.00  0.00     0.314 C 
BRANCH   2   3
ATOM      3  C1  <1> d           2.444   2.135   1.223  0.00  0.00     0.173 C 
ATOM      4  O1  <1> d           2.364   1.744   2.376  0.00  0.00    -0.648 OA
BRANCH   3   5
ATOM      5  O2  <1> d           2.195   3.414   0.840  0.00  0.00    -0.775 OA
ATOM      6  H2  <1> d           2.346   3.445  -0.138  0.00  0.00     0.167 HD
ENDBRANCH   3   5
ENDBRANCH   2   3
BRANCH   2   7
ATOM      7  N1  <1> d           2.428   1.935  -1.232  0.00  0.00     0.093 N 
ATOM      8  H3  <1> d           1.405   1.863  -1.277  0.00  0.00     0.314 HD
ATOM      9  H4  <1> d           2.745   1.357  -2.018  0.00  0.00     0.314 HD
ENDBRANCH   2   7
ENDBRANCH   1   2
BRANCH   1  10
ATOM     10  C4  <1> d           5.241   2.315  -0.120  0.00  0.00     0.004 C 
BRANCH  10  11
ATOM     11  C5  <1> d           6.751   2.036  -0.159  0.00  0.00     0.020 C 
BRANCH  11  12
ATOM     12  C6  <1> d           7.155   1.181  -1.359  0.00  0.00     0.121 C 
BRANCH  12  13
ATOM     13  N2  <1> d           8.590   1.011  -1.432  0.00  0.00    -0.379 N 
ATOM     14  H13 <1> d           9.135   1.402  -0.671  0.00  0.00     0.160 HD
BRANCH  13  15
ATOM     15  C7  <1> d           9.232   0.190  -2.320  0.00  0.00     0.087 C 
ATOM     16  N3  <1> d           8.658  -0.446  -3.283  0.00  0.00    -0.288 NA
ATOM     17  H14 <1> d           7.659  -0.246  -3.294  0.00  0.00     0.188 HD
ATOM     18  C8  <1> d          10.725   0.014  -2.178  0.00  0.00     0.090 C 
ENDBRANCH  13  15
ENDBRANCH  12  13
ENDBRANCH  11  12
ENDBRANCH  10  11
ENDBRANCH   1  10
TORSDOF 9
