@<TRIPOS>MOLECULE
4ERL_GLY_A_202
 10 9 0 0 0
SMALL
GASTEIGER

@<TRIPOS>ATOM
      1 N          -1.3917    0.2482   -0.4295 N.3     1  GLY1       -0.3209
      2 CA         -0.3905   -0.0789    0.5771 C.3     1  GLY1        0.0918
      3 C           0.8462   -0.6283   -0.0745 C.2     1  GLY1        0.3185
      4 O           1.9814   -0.2825    0.2251 O.2     1  GLY1       -0.2496
      5 OXT         0.5728   -1.5719   -1.0085 O.3     1  GLY1       -0.4797
      6 H1         -2.3168    0.1514   -0.0113 H       1  GLY1        0.1187
      7 H2         -1.3674   -0.4279   -1.1927 H       1  GLY1        0.1187
      8 HA1        -0.7726   -0.8047    1.3022 H       1  GLY1        0.0537
      9 HA2        -0.1094    0.8352    1.1109 H       1  GLY1        0.0537
     10 HXT         1.2688   -1.6116   -1.6997 H       1  GLY1        0.2951
@<TRIPOS>BOND
     1     2     1    1
     2     3     2    1
     3     4     3    2
     4     5     3    1
     5     1     6    1
     6     1     7    1
     7     2     8    1
     8     2     9    1
     9     5    10    1
