@<TRIPOS>MOLECULE
1G4Q_MPD_A_25
 22 21 0 0 0
SMALL
GASTEIGER

@<TRIPOS>ATOM
      1 C          -1.5297   -1.3803   -0.3235 C.3     1  UNL1       -0.0363
      2 C          -1.1478    0.0994   -0.3924 C.3     1  UNL1        0.0629
      3 O          -2.0501    0.7390   -1.3108 O.3     1  UNL1       -0.3890
      4 C          -1.3121    0.7796    0.9707 C.3     1  UNL1       -0.0363
      5 C           0.2620    0.3167   -0.9848 C.3     1  UNL1        0.0013
      6 C           1.4225   -0.2929   -0.1840 C.3     1  UNL1        0.0550
      7 H           1.2409   -0.2206    0.8916 H       1  UNL1        0.0591
      8 O           1.5502   -1.6763   -0.5016 O.3     1  UNL1       -0.3920
      9 C           2.7440    0.3979   -0.4956 C.3     1  UNL1       -0.0389
     10 H          -2.5958   -1.5044   -0.1056 H       1  UNL1        0.0257
     11 H          -1.3242   -1.8847   -1.2734 H       1  UNL1        0.0257
     12 H          -0.9738   -1.9006    0.4632 H       1  UNL1        0.0257
     13 H          -2.9561    0.6320   -0.9751 H       1  UNL1        0.2101
     14 H          -2.3697    0.8871    1.2369 H       1  UNL1        0.0257
     15 H          -0.8704    1.7817    0.9692 H       1  UNL1        0.0257
     16 H          -0.8308    0.2022    1.7679 H       1  UNL1        0.0257
     17 H           0.2806   -0.0785   -2.0104 H       1  UNL1        0.0318
     18 H           0.4260    1.3985   -1.0863 H       1  UNL1        0.0318
     19 H           1.7917   -1.7499   -1.4409 H       1  UNL1        0.2098
     20 H           2.7790    1.3885   -0.0319 H       1  UNL1        0.0254
     21 H           2.8887    0.5211   -1.5726 H       1  UNL1        0.0254
     22 H           3.5860   -0.1840   -0.1090 H       1  UNL1        0.0254
@<TRIPOS>BOND
     1     2     1    1
     2     3     2    1
     3     4     2    1
     4     5     2    1
     5     6     5    1
     6     6     7    1
     7     8     6    1
     8     9     6    1
     9     1    10    1
    10     1    11    1
    11     1    12    1
    12     3    13    1
    13     4    14    1
    14     4    15    1
    15     4    16    1
    16     5    17    1
    17     5    18    1
    18     8    19    1
    19     9    20    1
    20     9    21    1
    21     9    22    1
