REMARK  4 active torsions:
REMARK  status: ('A' for Active; 'I' for Inactive)
REMARK    1  A    between atoms: O_3  and  C_2 
REMARK    2  A    between atoms: C_5  and  C_2 
REMARK    3  A    between atoms: C_6  and  C_5 
REMARK    4  A    between atoms: O_7  and  C_6 
ROOT
ATOM      1  C   UNL d   1      -1.530  -1.380  -0.324  0.00  0.00     0.045 C 
ATOM      2  C   UNL d   1      -1.148   0.099  -0.392  0.00  0.00     0.053 C 
ATOM      3  C   UNL d   1      -1.312   0.780   0.971  0.00  0.00     0.045 C 
ENDROOT
BRANCH   2   4
ATOM      4  O   UNL d   1      -2.050   0.739  -1.311  0.00  0.00    -0.391 OA
ATOM      5  H   UNL d   1      -2.956   0.632  -0.975  0.00  0.00     0.210 HD
ENDBRANCH   2   4
BRANCH   2   6
ATOM      6  C   UNL d   1       0.262   0.317  -0.985  0.00  0.00     0.068 C 
BRANCH   6   7
ATOM      7  C   UNL d   1       1.423  -0.293  -0.184  0.00  0.00     0.117 C 
ATOM      8  C   UNL d   1       2.744   0.398  -0.496  0.00  0.00     0.039 C 
BRANCH   7   9
ATOM      9  O   UNL d   1       1.550  -1.676  -0.502  0.00  0.00    -0.396 OA
ATOM     10  H   UNL d   1       1.792  -1.750  -1.441  0.00  0.00     0.210 HD
ENDBRANCH   7   9
ENDBRANCH   6   7
ENDBRANCH   2   6
TORSDOF 4
