@<TRIPOS>MOLECULE
1EHT_TEP_A_34
 13 14 0 0 0
SMALL
GASTEIGER
****
Coordinates from PDB:1EHT:A:34 Model:1 without hydrogens
@<TRIPOS>ATOM
      1 C          -4.8800   -7.2370    9.7250 C.3     1  UNL1        0.1383
      2 N          -5.2720   -6.6780   10.9380 N.ar    1  UNL1       -0.2454
      3 C          -5.4450   -7.5150   12.0100 C.ar    1  UNL1        0.3350
      4 O          -5.2420   -8.7140   11.8090 O.2     1  UNL1       -0.2461
      5 N          -5.8280   -7.1080   13.2630 N.ar    1  UNL1       -0.2627
      6 C          -5.9950   -7.9730   14.3320 C.3     1  UNL1        0.1366
      7 C          -6.0290   -5.7620   13.3490 C.ar    1  UNL1        0.1716
      8 C          -5.8550   -4.9380   12.2750 C.ar    1  UNL1        0.1731
      9 C          -5.4620   -5.3350   10.9840 C.ar    1  UNL1        0.2850
     10 O          -5.2910   -4.6350    9.9870 O.2     1  UNL1       -0.2651
     11 N          -6.1440   -3.6590   12.7310 N.ar    1  UNL1       -0.2160
     12 C          -6.4710   -3.7950   14.0380 C.ar    1  UNL1        0.2005
     13 N          -6.4190   -5.0270   14.4630 N.ar    1  UNL1       -0.2047
@<TRIPOS>BOND
     1     1     2    1
     2     2     3   ar
     3     2     9   ar
     4     3     4    2
     5     3     5   ar
     6     5     6    1
     7     5     7   ar
     8     7     8   ar
     9     7    13   ar
    10     8     9   ar
    11     8    11   ar
    12     9    10    2
    13    11    12   ar
    14    12    13   ar
