REMARK  0 active torsions:
REMARK  status: ('A' for Active; 'I' for Inactive)
ROOT
ATOM      1  C   UNL d   1      -4.880  -7.237   9.725  0.00  0.00     0.139 C 
ATOM      2  N   UNL d   1      -5.272  -6.678  10.938  0.00  0.00    -0.246 N 
ATOM      3  C   UNL d   1      -5.445  -7.515  12.010  0.00  0.00     0.335 A 
ATOM      4  O   UNL d   1      -5.242  -8.714  11.809  0.00  0.00    -0.246 OA
ATOM      5  N   UNL d   1      -5.828  -7.108  13.263  0.00  0.00    -0.263 N 
ATOM      6  C   UNL d   1      -5.995  -7.973  14.332  0.00  0.00     0.137 C 
ATOM      7  C   UNL d   1      -6.029  -5.762  13.349  0.00  0.00     0.172 A 
ATOM      8  C   UNL d   1      -5.855  -4.938  12.275  0.00  0.00     0.173 A 
ATOM      9  C   UNL d   1      -5.462  -5.335  10.984  0.00  0.00     0.285 A 
ATOM     10  O   UNL d   1      -5.291  -4.635   9.987  0.00  0.00    -0.265 OA
ATOM     11  N   UNL d   1      -6.144  -3.659  12.731  0.00  0.00    -0.216 NA
ATOM     12  C   UNL d   1      -6.471  -3.795  14.038  0.00  0.00     0.201 A 
ATOM     13  N   UNL d   1      -6.419  -5.027  14.463  0.00  0.00    -0.205 NA
ENDROOT
TORSDOF 0
