1EHT_TEP_A_34
 OpenBabel10091713573D
Coordinates from PDB:1EHT:A:34 Model:1 without hydrogens
 21 22  0  0  0  0  0  0  0  0999 V2000
   -4.8800   -7.2370    9.7250 C   0  0  0  0  0  0  0  0  0  0  0  0
   -5.2720   -6.6780   10.9380 N   0  0  0  0  0  0  0  0  0  0  0  0
   -5.4450   -7.5150   12.0100 C   0  0  0  0  0  0  0  0  0  0  0  0
   -5.2420   -8.7140   11.8090 O   0  0  0  0  0  0  0  0  0  0  0  0
   -5.8280   -7.1080   13.2630 N   0  0  0  0  0  0  0  0  0  0  0  0
   -5.9950   -7.9730   14.3320 C   0  0  0  0  0  0  0  0  0  0  0  0
   -6.0290   -5.7620   13.3490 C   0  0  0  0  0  0  0  0  0  0  0  0
   -5.8550   -4.9380   12.2750 C   0  0  0  0  0  0  0  0  0  0  0  0
   -5.4620   -5.3350   10.9840 C   0  0  0  0  0  0  0  0  0  0  0  0
   -5.2910   -4.6350    9.9870 O   0  0  0  0  0  0  0  0  0  0  0  0
   -6.1440   -3.6590   12.7310 N   0  0  0  0  0  0  0  0  0  0  0  0
   -6.4710   -3.7950   14.0380 C   0  0  0  0  0  0  0  0  0  0  0  0
   -6.4190   -5.0270   14.4630 N   0  0  0  0  0  0  0  0  0  0  0  0
   -4.7697   -8.2952    9.8390 H   0  0  0  0  0  0  0  0  0  0  0  0
   -3.9462   -6.8117    9.4215 H   0  0  0  0  0  0  0  0  0  0  0  0
   -5.6227   -7.0338    8.9821 H   0  0  0  0  0  0  0  0  0  0  0  0
   -5.7799   -8.9732   14.0185 H   0  0  0  0  0  0  0  0  0  0  0  0
   -7.0050   -7.9180   14.6809 H   0  0  0  0  0  0  0  0  0  0  0  0
   -5.3291   -7.6960   15.1224 H   0  0  0  0  0  0  0  0  0  0  0  0
   -6.1168   -2.8238   12.2105 H   0  0  0  0  0  0  0  0  0  0  0  0
   -6.7360   -2.9999   14.6402 H   0  0  0  0  0  0  0  0  0  0  0  0
  1  2  1  0  0  0  0
  1 14  1  0  0  0  0
  1 15  1  0  0  0  0
  1 16  1  0  0  0  0
  2  3  1  0  0  0  0
  2  9  1  0  0  0  0
  3  4  2  0  0  0  0
  3  5  1  0  0  0  0
  5  6  1  0  0  0  0
  5  7  1  0  0  0  0
  6 17  1  0  0  0  0
  6 18  1  0  0  0  0
  6 19  1  0  0  0  0
  7  8  2  0  0  0  0
  7 13  1  0  0  0  0
  8  9  1  0  0  0  0
  8 11  1  0  0  0  0
  9 10  2  0  0  0  0
 11 12  1  0  0  0  0
 11 20  1  0  0  0  0
 12 13  2  0  0  0  0
 12 21  1  0  0  0  0
M  END
$$$$
