REMARK  5 active torsions:
REMARK  status: ('A' for Active; 'I' for Inactive)
REMARK    1  A    between atoms: C5*_2  and  O5*_1 
REMARK    2  A    between atoms: C4*_3  and  C5*_2 
REMARK    3  A    between atoms: N9_6  and  C1*_5 
REMARK    4  A    between atoms: N2_17  and  C2_13 
REMARK    5  A    between atoms: O3*_20  and  C3*_19 
ROOT
ATOM      1  N9   G1 d          -1.268   0.853   0.005  0.00  0.00    -0.298 N 
ATOM      2  C8   G1 d          -1.867   1.634   0.991  0.00  0.00     0.214 C 
ATOM      3  N7   G1 d          -2.984   1.081   1.448  0.00  0.00    -0.234 NA
ATOM      4  C5   G1 d          -2.953  -0.195   0.952  0.00  0.00     0.172 C 
ATOM      5  C4   G1 d          -1.855  -0.361   0.158  0.00  0.00     0.148 C 
ATOM      6  N3   G1 d          -1.586  -1.494  -0.495  0.00  0.00    -0.315 N 
ATOM      7  H3   G1 d          -0.722  -1.635  -1.006  0.00  0.00     0.170 HD
ATOM      8  C2   G1 d          -2.494  -2.531  -0.331  0.00  0.00     0.182 C 
ATOM      9  N1   G1 d          -3.479  -2.503   0.547  0.00  0.00    -0.179 NA
ATOM     10  C6   G1 d          -3.887  -1.296   1.135  0.00  0.00     0.302 C 
ATOM     11  O6   G1 d          -4.892  -1.194   1.828  0.00  0.00    -0.263 OA
ENDROOT
BRANCH   1  12
ATOM     12  C1*  G1 d           0.054   1.050  -0.564  0.00  0.00     0.233 C 
ATOM     13  O4*  G1 d           0.310   2.452  -0.550  0.00  0.00    -0.356 OA
ATOM     14  C4*  G1 d           1.351   2.728  -1.486  0.00  0.00     0.176 C 
ATOM     15  C3*  G1 d           1.244   1.648  -2.568  0.00  0.00     0.153 C 
ATOM     16  C2*  G1 d           0.283   0.596  -2.013  0.00  0.00     0.088 C 
BRANCH  14  17
ATOM     17  C5*  G1 d           1.232   4.199  -1.866  0.00  0.00     0.198 C 
BRANCH  17  18
ATOM     18  O5*  G1 d           2.505   4.725  -2.219  0.00  0.00    -0.398 OA
ATOM     19  H5*  G1 d           2.663   4.517  -3.155  0.00  0.00     0.209 HD
ENDBRANCH  17  18
ENDBRANCH  14  17
BRANCH  15  20
ATOM     20  O3*  G1 d           2.525   1.015  -2.675  0.00  0.00    -0.393 OA
ATOM     21  H3*  G1 d           3.216   1.690  -2.567  0.00  0.00     0.210 HD
ENDBRANCH  15  20
ENDBRANCH   1  12
BRANCH   8  22
ATOM     22  N2   G1 d          -2.084  -3.705  -0.927  0.00  0.00    -0.272 NA
ATOM     23  H21  G1 d          -1.105  -3.737  -1.206  0.00  0.00     0.127 HD
ATOM     24  H22  G1 d          -2.691  -4.062  -1.661  0.00  0.00     0.127 HD
ENDBRANCH   8  22
TORSDOF 5
