@<TRIPOS>MOLECULE
3DS7_GNG_A_120
 32 34 0 0 0
SMALL
GASTEIGER

@<TRIPOS>ATOM
      1 O5*         2.5051    4.7248   -2.2194 O.3     1    G1       -0.3924
      2 C5*         1.2317    4.1988   -1.8656 C.3     1    G1        0.0729
      3 C4*         1.3512    2.7280   -1.4856 C.3     1    G1        0.1100
      4 H4*         2.2942    2.6072   -0.9412 H       1    G1        0.0646
      5 O4*         0.3097    2.4520   -0.5503 O.3     1    G1       -0.3484
      6 C1*         0.0545    1.0503   -0.5638 C.3     1    G1        0.1407
      7 H1*         0.7810    0.5341    0.0749 H       1    G1        0.0840
      8 N9         -1.2675    0.8527    0.0055 N.ar    1    G1       -0.2893
      9 C8         -1.8668    1.6341    0.9907 C.ar    1    G1        0.1004
     10 N7         -2.9843    1.0807    1.4477 N.ar    1    G1       -0.2286
     11 C5         -2.9534   -0.1946    0.9519 C.ar    1    G1        0.1721
     12 C4         -1.8555   -0.3611    0.1578 C.ar    1    G1        0.1482
     13 N3         -1.5856   -1.4935   -0.4951 N.ar    1    G1       -0.3122
     14 H3         -0.7219   -1.6352   -1.0059 H       1    G1        0.1700
     15 C2         -2.4935   -2.5310   -0.3305 C.ar    1    G1        0.1952
     16 N1         -3.4795   -2.5027    0.5467 N.ar    1    G1       -0.1756
     17 C6         -3.8866   -1.2960    1.1345 C.ar    1    G1        0.3021
     18 O6         -4.8924   -1.1940    1.8276 O.2     1    G1       -0.2633
     19 N2         -2.0845   -3.7054   -0.9268 N.pl3   1    G1       -0.3289
     20 C2*         0.2830    0.5962   -2.0129 C.3     1    G1        0.0213
     21 C3*         1.2441    1.6482   -2.5678 C.3     1    G1        0.0876
     22 H3*         0.9739    1.9936   -3.5711 H       1    G1        0.0621
     23 O3*         2.5254    1.0146   -2.6747 O.3     1    G1       -0.3890
     24 H5*         2.6626    4.5170   -3.1545 H       1    G1        0.2095
     25 H5*1        0.9040    4.7736   -0.9887 H       1    G1        0.0584
     26 H5*2        0.5215    4.3834   -2.6761 H       1    G1        0.0584
     27 H8         -1.5870    2.6722    1.1475 H       1    G1        0.1030
     28 H21        -1.1050   -3.7375   -1.2058 H       1    G1        0.1451
     29 H22        -2.6906   -4.0623   -1.6615 H       1    G1        0.1451
     30 H2*1       -0.6512    0.4722   -2.5802 H       1    G1        0.0335
     31 H2*2        0.7630   -0.3920   -2.0478 H       1    G1        0.0335
     32 H3*         3.2157    1.6899   -2.5667 H       1    G1        0.2099
@<TRIPOS>BOND
     1     2     1    1
     2     3     2    1
     3     3     4    1
     4     5     3    1
     5     6     5    1
     6     6     7    1
     7     8     6    1
     8     9     8   ar
     9    10     9   ar
    10    11    10   ar
    11    12    11   ar
    12    12     8   ar
    13    13    12   ar
    14    13    14    1
    15    15    13   ar
    16    16    15   ar
    17    17    16   ar
    18    17    11   ar
    19    18    17    2
    20    19    15    1
    21    20     6    1
    22    21    20    1
    23    21    22    1
    24    21     3    1
    25    23    21    1
    26     1    24    1
    27     2    25    1
    28     2    26    1
    29     9    27    1
    30    19    28    1
    31    19    29    1
    32    20    30    1
    33    20    31    1
    34    23    32    1
