REMARK  7 active torsions:
REMARK  status: ('A' for Active; 'I' for Inactive)
REMARK    1  A    between atoms: C_10  and  C_8 
REMARK    2  A    between atoms: N_11  and  C_10 
REMARK    3  A    between atoms: C_18  and  N_14 
REMARK    4  A    between atoms: N_17  and  C_15 
REMARK    5  A    between atoms: C_19  and  C_18 
REMARK    6  A    between atoms: C_20  and  C_19 
REMARK    7  A    between atoms: N_21  and  C_20 
ROOT
ATOM      1  C   UNL d   1      -0.306  -3.715  -2.297  0.00  0.00     0.040 C 
ATOM      2  C   UNL d   1       1.057  -3.995  -2.117  0.00  0.00     0.037 C 
ATOM      3  C   UNL d   1       1.821  -3.075  -1.351  0.00  0.00     0.087 C 
ATOM      4  C   UNL d   1       1.151  -2.305  -0.382  0.00  0.00     0.075 C 
ATOM      5  C   UNL d   1      -0.237  -2.342  -0.288  0.00  0.00     0.007 C 
ATOM      6  C   UNL d   1      -0.942  -3.020  -1.281  0.00  0.00     0.078 C 
ATOM      7  O   UNL d   1      -2.199  -2.426  -1.473  0.00  0.00    -0.343 OA
ATOM      8  C   UNL d   1      -2.239  -1.332  -0.485  0.00  0.00     0.161 C 
ATOM      9  C   UNL d   1      -1.237  -1.715   0.607  0.00  0.00     0.078 C 
ATOM     10  N   UNL d   1       2.162  -1.539   0.163  0.00  0.00    -0.320 N 
ATOM     11  C   UNL d   1       3.354  -2.178  -0.148  0.00  0.00     0.180 C 
ATOM     12  N   UNL d   1       3.145  -3.175  -0.982  0.00  0.00    -0.218 NA
ENDROOT
BRANCH  10  13
ATOM     13  C   UNL d   1       2.099  -0.091   0.385  0.00  0.00     0.133 C 
BRANCH  13  14
ATOM     14  C   UNL d   1       2.757   0.708  -0.761  0.00  0.00     0.050 C 
BRANCH  14  15
ATOM     15  C   UNL d   1       1.912   1.882  -1.290  0.00  0.00     0.273 C 
BRANCH  15  16
ATOM     16  N   UNL d   1       2.605   3.175  -1.327  0.00  0.00     0.080 N 
ATOM     17  C   UNL d   1       3.800   3.181  -2.162  0.00  0.00     0.309 C 
ATOM     18  C   UNL d   1       2.826   3.729   0.003  0.00  0.00     0.309 C 
ENDBRANCH  15  16
ENDBRANCH  14  15
ENDBRANCH  13  14
ENDBRANCH  10  13
BRANCH  11  19
ATOM     19  N   UNL d   1       4.465  -1.893   0.576  0.00  0.00    -0.272 NA
ATOM     20  H   UNL d   1       4.535  -2.361   1.481  0.00  0.00     0.127 HD
ATOM     21  H   UNL d   1       5.348  -2.017   0.085  0.00  0.00     0.127 HD
ENDBRANCH  11  19
BRANCH   8  22
ATOM     22  C   UNL d   1      -3.704  -1.051  -0.116  0.00  0.00     0.303 C 
BRANCH  22  23
ATOM     23  N   UNL d   1      -4.041  -0.257   1.078  0.00  0.00     0.082 N 
ATOM     24  C   UNL d   1      -4.908  -0.987   2.002  0.00  0.00     0.309 C 
ATOM     25  C   UNL d   1      -2.941   0.390   1.777  0.00  0.00     0.309 C 
ENDBRANCH  22  23
ENDBRANCH   8  22
TORSDOF 7
