@<TRIPOS>MOLECULE
2KTZ_ISH_A_39
 50 52 0 0 0
SMALL
GASTEIGER

@<TRIPOS>ATOM
      1 C          -0.3056   -3.7151   -2.2975 C.ar    1  UNL1       -0.0175
      2 C           1.0567   -3.9947   -2.1174 C.ar    1  UNL1       -0.0307
      3 C           1.8209   -3.0745   -1.3514 C.ar    1  UNL1        0.0914
      4 C           1.1511   -2.3050   -0.3823 C.ar    1  UNL1        0.0769
      5 C          -0.2367   -2.3421   -0.2883 C.ar    1  UNL1        0.0234
      6 C          -0.9423   -3.0197   -1.2811 C.ar    1  UNL1        0.1263
      7 O          -2.1985   -2.4259   -1.4726 O.3     1  UNL1       -0.4869
      8 C          -2.2389   -1.3316   -0.4855 C.3     1  UNL1        0.1169
      9 H          -1.8609   -0.4474   -1.0209 H       1  UNL1        0.0749
     10 C          -1.2372   -1.7149    0.6067 C.3     1  UNL1        0.0162
     11 C          -3.7037   -1.0511   -0.1162 C.3     1  UNL1        0.0357
     12 N          -4.0406   -0.2565    1.0782 N.3     1  UNL1       -0.3048
     13 C          -4.9080   -0.9865    2.0022 C.3     1  UNL1       -0.0129
     14 C          -2.9411    0.3897    1.7768 C.3     1  UNL1       -0.0129
     15 N           2.1616   -1.5394    0.1631 N.ar    1  UNL1       -0.3117
     16 C           3.3540   -2.1776   -0.1481 C.ar    1  UNL1        0.1940
     17 N           3.1453   -3.1753   -0.9818 N.ar    1  UNL1       -0.2146
     18 N           4.4645   -1.8931    0.5755 N.pl3   1  UNL1       -0.3288
     19 C           2.0987   -0.0908    0.3847 C.3     1  UNL1        0.0276
     20 C           2.7572    0.7084   -0.7614 C.3     1  UNL1       -0.0221
     21 C           1.9119    1.8819   -1.2903 C.3     1  UNL1       -0.0001
     22 N           2.6048    3.1753   -1.3273 N.3     1  UNL1       -0.3083
     23 C           3.8001    3.1806   -2.1615 C.3     1  UNL1       -0.0130
     24 C           2.8263    3.7288    0.0031 C.3     1  UNL1       -0.0130
     25 H          -0.8944   -4.3411   -2.9711 H       1  UNL1        0.0655
     26 H           1.5645   -4.5921   -2.8811 H       1  UNL1        0.0641
     27 H          -0.8274   -0.8831    1.1760 H       1  UNL1        0.0351
     28 H          -1.6467   -2.4638    1.2934 H       1  UNL1        0.0351
     29 H          -4.2728   -1.9908   -0.1239 H       1  UNL1        0.0463
     30 H          -4.1249   -0.4779   -0.9553 H       1  UNL1        0.0463
     31 H          -4.9321   -0.5270    2.9957 H       1  UNL1        0.0391
     32 H          -5.9355   -0.9898    1.6259 H       1  UNL1        0.0391
     33 H          -4.5813   -2.0229    2.1227 H       1  UNL1        0.0391
     34 H          -2.1805    0.7761    1.0931 H       1  UNL1        0.0391
     35 H          -2.4673   -0.2900    2.4920 H       1  UNL1        0.0391
     36 H          -3.3088    1.2502    2.3398 H       1  UNL1        0.0391
     37 H           4.5353   -2.3605    1.4812 H       1  UNL1        0.1451
     38 H           5.3485   -2.0172    0.0849 H       1  UNL1        0.1451
     39 H           1.0576    0.1980    0.5595 H       1  UNL1        0.0493
     40 H           2.6450    0.0975    1.3184 H       1  UNL1        0.0493
     41 H           3.7278    1.0628   -0.3947 H       1  UNL1        0.0295
     42 H           2.9846    0.0617   -1.6178 H       1  UNL1        0.0295
     43 H           0.9916    1.9931   -0.7034 H       1  UNL1        0.0427
     44 H           1.5732    1.6419   -2.3073 H       1  UNL1        0.0427
     45 H           3.5772    2.8127   -3.1693 H       1  UNL1        0.0391
     46 H           4.6096    2.5701   -1.7474 H       1  UNL1        0.0391
     47 H           4.1827    4.2005   -2.2775 H       1  UNL1        0.0391
     48 H           2.0481    4.4702    0.2107 H       1  UNL1        0.0391
     49 H           2.7729    2.9737    0.7959 H       1  UNL1        0.0391
     50 H           3.7944    4.2334    0.0982 H       1  UNL1        0.0391
@<TRIPOS>BOND
     1     2     1   ar
     2     3     2   ar
     3     4     3   ar
     4     5     4   ar
     5     6     5   ar
     6     6     1   ar
     7     7     6    1
     8     8     7    1
     9     8     9    1
    10    10     8    1
    11    10     5    1
    12    11     8    1
    13    12    11    1
    14    13    12    1
    15    14    12    1
    16    15     4   ar
    17    16    15   ar
    18    17    16   ar
    19    17     3   ar
    20    18    16    1
    21    19    15    1
    22    20    19    1
    23    21    20    1
    24    22    21    1
    25    23    22    1
    26    24    22    1
    27     1    25    1
    28     2    26    1
    29    10    27    1
    30    10    28    1
    31    11    29    1
    32    11    30    1
    33    13    31    1
    34    13    32    1
    35    13    33    1
    36    14    34    1
    37    14    35    1
    38    14    36    1
    39    18    37    1
    40    18    38    1
    41    19    39    1
    42    19    40    1
    43    20    41    1
    44    20    42    1
    45    21    43    1
    46    21    44    1
    47    23    45    1
    48    23    46    1
    49    23    47    1
    50    24    48    1
    51    24    49    1
    52    24    50    1
