3C44_PAR_A_24
 OpenBabel10091713573D
Coordinates from PDB:3C44:A:24 Model:1 without hydrogens
 42 45  0  0  0  0  0  0  0  0999 V2000
   37.0430   34.3840  -12.9210 C   0  0  2  0  0  0  0  0  0  0  0  0
   36.1360   34.2070  -14.0200 O   0  0  0  0  0  0  0  0  0  0  0  0
   38.4720   34.1110  -13.4020 C   0  0  2  0  0  0  0  0  0  0  0  0
   38.8010   34.9450  -14.5670 N   0  0  0  0  0  0  0  0  0  0  0  0
   38.6630   32.6380  -13.7720 C   0  0  1  0  0  0  0  0  0  0  0  0
   40.0440   32.4000  -14.0610 O   0  0  0  0  0  0  0  0  0  0  0  0
   38.2240   31.7490  -12.6070 C   0  0  2  0  0  0  0  0  0  0  0  0
   38.3000   30.3750  -12.9960 O   0  0  0  0  0  0  0  0  0  0  0  0
   36.7870   32.0940  -12.2130 C   0  0  2  0  0  0  0  0  0  0  0  0
   36.6910   33.4860  -11.8520 O   0  0  0  0  0  0  0  0  0  0  0  0
   36.4100   31.2160  -11.0170 C   0  0  0  0  0  0  0  0  0  0  0  0
   35.0230   31.4850  -10.6110 O   0  0  0  0  0  0  0  0  0  0  0  0
   32.7190   36.2440  -15.1880 C   0  0  2  0  0  0  0  0  0  0  0  0
   31.4270   36.9110  -15.4110 N   0  0  0  0  0  0  0  0  0  0  0  0
   32.5110   34.7670  -14.8410 C   0  0  0  0  0  0  0  0  0  0  0  0
   33.8910   34.1040  -14.7770 C   0  0  2  0  0  0  0  0  0  0  0  0
   33.7360   32.6950  -14.3850 N   0  0  0  0  0  0  0  0  0  0  0  0
   34.8420   34.7910  -13.7890 C   0  0  2  0  0  0  0  0  0  0  0  0
   34.9070   36.3100  -13.9340 C   0  0  2  0  0  0  0  0  0  0  0  0
   35.5840   36.8680  -12.7960 O   0  0  0  0  0  0  0  0  0  0  0  0
   33.5010   36.9100  -14.0530 C   0  0  1  0  0  0  0  0  0  0  0  0
   33.5880   38.3190  -14.2770 O   0  0  0  0  0  0  0  0  0  0  0  0
   36.4300   37.9910  -13.0990 C   0  0  1  0  0  0  0  0  0  0  0  0
   36.7270   38.7570  -11.8090 C   0  0  2  0  0  0  0  0  0  0  0  0
   35.6560   39.6570  -11.5180 O   0  0  0  0  0  0  0  0  0  0  0  0
   37.9400   39.5660  -12.2640 C   0  0  2  0  0  0  0  0  0  0  0  0
   37.5460   40.6190  -13.1590 O   0  0  0  0  0  0  0  0  0  0  0  0
   38.7080   38.5040  -13.0350 C   0  0  2  0  0  0  0  0  0  0  0  0
   37.7300   37.5820  -13.5630 O   0  0  0  0  0  0  0  0  0  0  0  0
   39.6810   37.7930  -12.0920 C   0  0  0  0  0  0  0  0  0  0  0  0
   40.4230   36.8210  -12.8320 O   0  0  0  0  0  0  0  0  0  0  0  0
   38.3070   41.8150  -12.9150 C   0  0  2  0  0  0  0  0  0  0  0  0
   37.7490   42.9620  -13.7640 C   0  0  2  0  0  0  0  0  0  0  0  0
   37.7280   42.5290  -15.1680 N   0  0  0  0  0  0  0  0  0  0  0  0
   38.6250   44.2160  -13.6450 C   0  0  1  0  0  0  0  0  0  0  0  0
   38.4870   44.8000  -12.3470 O   0  0  0  0  0  0  0  0  0  0  0  0
   40.0990   43.8810  -13.8790 C   0  0  2  0  0  0  0  0  0  0  0  0
   40.2760   43.5060  -15.2480 O   0  0  0  0  0  0  0  0  0  0  0  0
   40.5010   42.7300  -12.9530 C   0  0  1  0  0  0  0  0  0  0  0  0
   39.6820   41.5890  -13.2640 O   0  0  0  0  0  0  0  0  0  0  0  0
   41.9730   42.3470  -13.1110 C   0  0  0  0  0  0  0  0  0  0  0  0
   42.1900   41.8060  -14.4600 N   0  0  0  0  0  0  0  0  0  0  0  0
  1  2  1  6  0  0  0
  1  3  1  0  0  0  0
  1 10  1  0  0  0  0
  3  4  1  6  0  0  0
  3  5  1  0  0  0  0
  5  6  1  1  0  0  0
  5  7  1  0  0  0  0
  7  8  1  6  0  0  0
  7  9  1  0  0  0  0
  9 10  1  0  0  0  0
  9 11  1  1  0  0  0
 11 12  1  0  0  0  0
 13 14  1  1  0  0  0
 13 15  1  0  0  0  0
 13 21  1  0  0  0  0
 15 16  1  0  0  0  0
 16 17  1  1  0  0  0
 16 18  1  0  0  0  0
 18  2  1  6  0  0  0
 18 19  1  0  0  0  0
 19 20  1  1  0  0  0
 19 21  1  0  0  0  0
 21 22  1  6  0  0  0
 23 20  1  1  0  0  0
 23 24  1  0  0  0  0
 23 29  1  0  0  0  0
 24 25  1  6  0  0  0
 24 26  1  0  0  0  0
 26 27  1  6  0  0  0
 26 28  1  0  0  0  0
 28 29  1  0  0  0  0
 28 30  1  1  0  0  0
 30 31  1  0  0  0  0
 32 27  1  6  0  0  0
 32 33  1  0  0  0  0
 32 40  1  0  0  0  0
 33 34  1  6  0  0  0
 33 35  1  0  0  0  0
 35 36  1  1  0  0  0
 35 37  1  0  0  0  0
 37 38  1  6  0  0  0
 37 39  1  0  0  0  0
 39 40  1  0  0  0  0
 39 41  1  6  0  0  0
 41 42  1  0  0  0  0
A    1
C11
A    2
O11
A    3
C21
A    4
N21
A    5
C31
A    6
O31
A    7
C41
A    8
O41
A    9
C51
A   10
O51
A   11
C61
A   12
O61
A   13
C12
A   14
N12
A   15
C22
A   16
C32
A   17
N32
A   18
C42
A   19
C52
A   20
O52
A   21
C62
A   22
O62
A   23
C13
A   24
C23
A   25
O23
A   26
C33
A   27
O33
A   28
C43
A   29
O43
A   30
C53
A   31
O53
A   32
C14
A   33
C24
A   34
N24
A   35
C34
A   36
O34
A   37
C44
A   38
O44
A   39
C54
A   40
O54
A   41
C64
A   42
N64
M  END
>  <InstanceId>
3C44_PAR_A_24

>  <ChemCompId>
PAR

>  <PdbId>
3C44

>  <ChainId>
A

>  <ResidueNumber>
24

>  <InsertionCode>


>  <Model>
1

>  <AltIds>


>  <MissingHeavyAtoms>
0

>  <ObservedFormula>
C23 N5 O14

>  <Name>
PAROMOMYCIN

>  <SystematicName>
(2R,3S,4R,5R,6S)-5-amino-6-[(1R,2R,3S,4R,6S)-4,6-diamino-2-[(2S,3R,4S,5R)-4-[(2R,3R,4R,5S,6S)-3-amino-6-(aminomethyl)-4,5-dihydroxy-oxan-2-yl]oxy-3-hydroxy-5-(hydroxymethyl)oxolan-2-yl]oxy-3-hydroxy-cyclohexyl]oxy-2-(hydroxymethyl)oxane-3,4-diol

>  <Synonyms>
PAROMOMYCIN I, AMMINOSIDIN, CATENULIN, CRESTOMYCIN, MONOMYCIN A, NEOMYCIN E

>  <Type>
NON-POLYMER

>  <Formula>
C23 H45 N5 O14

>  <MolecularWeight>
615.628

>  <ModifiedDate>
2011-06-04

>  <Parent>


>  <OneLetterCode>


>  <SubcomponentList>


>  <AmbiguousFlag>
N

>  <InChI>
InChI=1S/C23H45N5O14/c24-2-7-13(32)15(34)10(27)21(37-7)41-19-9(4-30)39-23(17(19)36)42-20-12(31)5(25)1-6(26)18(20)40-22-11(28)16(35)14(33)8(3-29)38-22/h5-23,29-36H,1-4,24-28H2/t5-,6+,7+,8-,9-,10-,11-,12+,13-,14-,15-,16-,17-,18-,19-,20-,21-,22-,23+/m1/s1

>  <InChIKey>
UOZODPSAJZTQNH-LSWIJEOBSA-N

>  <SMILES>
C1[C@H]([C@@H]([C@H]([C@@H]([C@H]1N)O[C@@H]2[C@@H]([C@H]([C@@H]([C@H](O2)CO)O)O)N)O[C@H]3[C@@H]([C@@H]([C@H](O3)CO)O[C@@H]4[C@@H]([C@H]([C@@H]([C@@H](O4)CN)O)O)N)O)O)N

$$$$
