REMARK  9 active torsions:
REMARK  status: ('A' for Active; 'I' for Inactive)
REMARK    1  A    between atoms: C_1  and  O_2 
REMARK    2  A    between atoms: C_18  and  O_2 
REMARK    3  A    between atoms: C_9  and  C_11 
REMARK    4  A    between atoms: C_19  and  O_20 
REMARK    5  A    between atoms: C_23  and  O_20 
REMARK    6  A    between atoms: C_26  and  O_27 
REMARK    7  A    between atoms: C_32  and  O_27 
REMARK    8  A    between atoms: C_28  and  C_30 
REMARK    9  A    between atoms: C_39  and  C_41 
ROOT
ATOM      1  C   UNL d   1      32.719  36.244 -15.188  0.00  0.00     0.337 C 
ATOM      2  N   UNL d   1      31.427  36.911 -15.411  0.00  0.00     0.619 N 
ATOM      3  C   UNL d   1      32.511  34.767 -14.841  0.00  0.00     0.084 C 
ATOM      4  C   UNL d   1      33.891  34.104 -14.777  0.00  0.00     0.333 C 
ATOM      5  N   UNL d   1      33.736  32.695 -14.385  0.00  0.00     0.619 N 
ATOM      6  C   UNL d   1      34.842  34.791 -13.789  0.00  0.00     0.184 C 
ATOM      7  C   UNL d   1      34.907  36.310 -13.934  0.00  0.00     0.180 C 
ATOM      8  C   UNL d   1      33.501  36.910 -14.053  0.00  0.00     0.218 C 
ATOM      9  O   UNL d   1      33.588  38.319 -14.277  0.00  0.00    -0.218 OA
ENDROOT
BRANCH   7  10
ATOM     10  O   UNL d   1      35.584  36.868 -12.796  0.00  0.00    -0.326 OA
BRANCH  10  11
ATOM     11  C   UNL d   1      36.430  37.991 -13.099  0.00  0.00     0.270 C 
ATOM     12  C   UNL d   1      36.727  38.757 -11.809  0.00  0.00     0.238 C 
ATOM     13  O   UNL d   1      35.656  39.657 -11.518  0.00  0.00    -0.215 OA
ATOM     14  C   UNL d   1      37.940  39.566 -12.264  0.00  0.00     0.183 C 
ATOM     15  C   UNL d   1      38.708  38.504 -13.035  0.00  0.00     0.181 C 
ATOM     16  O   UNL d   1      37.730  37.582 -13.563  0.00  0.00    -0.326 OA
BRANCH  14  17
ATOM     17  O   UNL d   1      37.546  40.619 -13.159  0.00  0.00    -0.326 OA
BRANCH  17  18
ATOM     18  C   UNL d   1      38.307  41.815 -12.915  0.00  0.00     0.277 C 
ATOM     19  C   UNL d   1      37.749  42.962 -13.764  0.00  0.00     0.390 C 
ATOM     20  N   UNL d   1      37.728  42.529 -15.168  0.00  0.00     0.624 N 
ATOM     21  C   UNL d   1      38.625  44.216 -13.645  0.00  0.00     0.227 C 
ATOM     22  O   UNL d   1      38.487  44.800 -12.347  0.00  0.00    -0.218 OA
ATOM     23  C   UNL d   1      40.099  43.881 -13.879  0.00  0.00     0.214 C 
ATOM     24  O   UNL d   1      40.276  43.506 -15.248  0.00  0.00    -0.218 OA
ATOM     25  C   UNL d   1      40.501  42.730 -12.953  0.00  0.00     0.190 C 
ATOM     26  O   UNL d   1      39.682  41.589 -13.264  0.00  0.00    -0.327 OA
BRANCH  25  27
ATOM     27  C   UNL d   1      41.973  42.347 -13.111  0.00  0.00     0.370 C 
ATOM     28  N   UNL d   1      42.190  41.806 -14.460  0.00  0.00     0.621 N 
ENDBRANCH  25  27
ENDBRANCH  17  18
ENDBRANCH  14  17
BRANCH  15  29
ATOM     29  C   UNL d   1      39.681  37.793 -12.092  0.00  0.00     0.214 C 
ATOM     30  O   UNL d   1      40.423  36.821 -12.832  0.00  0.00    -0.218 OA
ENDBRANCH  15  29
ENDBRANCH  10  11
ENDBRANCH   7  10
BRANCH   6  31
ATOM     31  O   UNL d   1      36.136  34.207 -14.020  0.00  0.00    -0.327 OA
BRANCH  31  32
ATOM     32  C   UNL d   1      37.043  34.384 -12.921  0.00  0.00     0.277 C 
ATOM     33  C   UNL d   1      38.472  34.111 -13.402  0.00  0.00     0.390 C 
ATOM     34  N   UNL d   1      38.801  34.945 -14.567  0.00  0.00     0.624 N 
ATOM     35  C   UNL d   1      38.663  32.638 -13.772  0.00  0.00     0.227 C 
ATOM     36  O   UNL d   1      40.044  32.400 -14.061  0.00  0.00    -0.218 OA
ATOM     37  C   UNL d   1      38.224  31.749 -12.607  0.00  0.00     0.214 C 
ATOM     38  O   UNL d   1      38.300  30.375 -12.996  0.00  0.00    -0.218 OA
ATOM     39  C   UNL d   1      36.787  32.094 -12.213  0.00  0.00     0.184 C 
ATOM     40  O   UNL d   1      36.691  33.486 -11.852  0.00  0.00    -0.326 OA
BRANCH  39  41
ATOM     41  C   UNL d   1      36.410  31.216 -11.017  0.00  0.00     0.214 C 
ATOM     42  O   UNL d   1      35.023  31.485 -10.611  0.00  0.00    -0.218 OA
ENDBRANCH  39  41
ENDBRANCH  31  32
ENDBRANCH   6  31
TORSDOF 9
