@<TRIPOS>MOLECULE
3C44_PAR_A_24
 42 45 0 0 0
SMALL
GASTEIGER
****
Coordinates from PDB:3C44:A:24 Model:1 without hydrogens
@<TRIPOS>ATOM
      1 C          37.0430   34.3840  -12.9210 C.3     1  UNL1        0.2561
      2 O          36.1360   34.2070  -14.0200 O.3     1  UNL1       -0.3278
      3 C          38.4720   34.1110  -13.4020 C.3     1  UNL1        0.1807
      4 N          38.8010   34.9450  -14.5670 N.3     1  UNL1       -0.1248
      5 C          38.6630   32.6380  -13.7720 C.3     1  UNL1        0.2070
      6 O          40.0440   32.4000  -14.0610 O.3     1  UNL1       -0.2186
      7 C          38.2240   31.7490  -12.6070 C.3     1  UNL1        0.2133
      8 O          38.3000   30.3750  -12.9960 O.3     1  UNL1       -0.2176
      9 C          36.7870   32.0940  -12.2130 C.3     1  UNL1        0.1834
     10 O          36.6910   33.4860  -11.8520 O.3     1  UNL1       -0.3264
     11 C          36.4100   31.2160  -11.0170 C.3     1  UNL1        0.2142
     12 O          35.0230   31.4850  -10.6110 O.3     1  UNL1       -0.2176
     13 C          32.7190   36.2440  -15.1880 C.3     1  UNL1        0.1261
     14 N          31.4270   36.9110  -15.4110 N.3     1  UNL1       -0.1301
     15 C          32.5110   34.7670  -14.8410 C.3     1  UNL1        0.0433
     16 C          33.8910   34.1040  -14.7770 C.3     1  UNL1        0.1230
     17 N          33.7360   32.6950  -14.3850 N.3     1  UNL1       -0.1302
     18 C          34.8420   34.7910  -13.7890 C.3     1  UNL1        0.1649
     19 C          34.9070   36.3100  -13.9340 C.3     1  UNL1        0.1779
     20 O          35.5840   36.8680  -12.7960 O.3     1  UNL1       -0.3258
     21 C          33.5010   36.9100  -14.0530 C.3     1  UNL1        0.1989
     22 O          33.5880   38.3190  -14.2770 O.3     1  UNL1       -0.2189
     23 C          36.4300   37.9910  -13.0990 C.3     1  UNL1        0.2694
     24 C          36.7270   38.7570  -11.8090 C.3     1  UNL1        0.2373
     25 O          35.6560   39.6570  -11.5180 O.3     1  UNL1       -0.2150
     26 C          37.9400   39.5660  -12.2640 C.3     1  UNL1        0.1827
     27 O          37.5460   40.6190  -13.1590 O.3     1  UNL1       -0.3265
     28 C          38.7080   38.5040  -13.0350 C.3     1  UNL1        0.1804
     29 O          37.7300   37.5820  -13.5630 O.3     1  UNL1       -0.3257
     30 C          39.6810   37.7930  -12.0920 C.3     1  UNL1        0.2141
     31 O          40.4230   36.8210  -12.8320 O.3     1  UNL1       -0.2176
     32 C          38.3070   41.8150  -12.9150 C.3     1  UNL1        0.2561
     33 C          37.7490   42.9620  -13.7640 C.3     1  UNL1        0.1807
     34 N          37.7280   42.5290  -15.1680 N.3     1  UNL1       -0.1248
     35 C          38.6250   44.2160  -13.6450 C.3     1  UNL1        0.2070
     36 O          38.4870   44.8000  -12.3470 O.3     1  UNL1       -0.2186
     37 C          40.0990   43.8810  -13.8790 C.3     1  UNL1        0.2122
     38 O          40.2760   43.5060  -15.2480 O.3     1  UNL1       -0.2177
     39 C          40.5010   42.7300  -12.9530 C.3     1  UNL1        0.1696
     40 O          39.6820   41.5890  -13.2640 O.3     1  UNL1       -0.3276
     41 C          41.9730   42.3470  -13.1110 C.3     1  UNL1        0.1415
     42 N          42.1900   41.8060  -14.4600 N.3     1  UNL1       -0.1286
@<TRIPOS>BOND
     1     1     2    1
     2     1     3    1
     3     1    10    1
     4     3     4    1
     5     3     5    1
     6     5     6    1
     7     5     7    1
     8     7     8    1
     9     7     9    1
    10     9    10    1
    11     9    11    1
    12    11    12    1
    13    13    14    1
    14    13    15    1
    15    13    21    1
    16    15    16    1
    17    16    17    1
    18    16    18    1
    19    18     2    1
    20    18    19    1
    21    19    20    1
    22    19    21    1
    23    21    22    1
    24    23    20    1
    25    23    24    1
    26    23    29    1
    27    24    25    1
    28    24    26    1
    29    26    27    1
    30    26    28    1
    31    28    29    1
    32    28    30    1
    33    30    31    1
    34    32    27    1
    35    32    33    1
    36    32    40    1
    37    33    34    1
    38    33    35    1
    39    35    36    1
    40    35    37    1
    41    37    38    1
    42    37    39    1
    43    39    40    1
    44    39    41    1
    45    41    42    1
