1UTS_P13_B_1046
 OpenBabel10091713573D
Coordinates from PDB:1UTS:B:1046 Model:1 without hydrogens
 30 33  0  0  0  0  0  0  0  0999 V2000
   -1.0850    5.1500   16.4350 C   0  0  0  0  0  0  0  0  0  0  0  0
   -1.0180    4.2460   15.3480 C   0  0  0  0  0  0  0  0  0  0  0  0
    0.1410    3.4460   15.1630 C   0  0  0  0  0  0  0  0  0  0  0  0
    1.2330    3.5480   16.0680 C   0  0  0  0  0  0  0  0  0  0  0  0
    1.1700    4.4720   17.1540 C   0  0  0  0  0  0  0  0  0  0  0  0
    0.0060    5.2680   17.3360 C   0  0  0  0  0  0  0  0  0  0  0  0
    5.2650    4.8110   21.0040 N   0  0  0  0  0  0  0  0  0  0  0  0
    4.2450    4.0950   20.2050 C   0  0  0  0  0  0  0  0  0  0  0  0
    2.8840    4.7660   20.3990 C   0  0  0  0  0  0  0  0  0  0  0  0
    1.8860    4.2030   19.3830 C   0  0  0  0  0  0  0  0  0  0  0  0
    2.2750    4.6040   18.0610 O   0  0  0  0  0  0  0  0  0  0  0  0
    2.4820    2.6710   15.8470 C   0  0  0  0  0  0  0  0  0  0  0  0
    3.1510    2.3920   17.1380 N   0  0  0  0  0  0  0  0  0  0  0  0
    4.1560    1.3110   16.9580 C   0  0  0  0  0  0  0  0  0  0  0  0
    3.4980   -0.0520   17.1920 C   0  0  0  0  0  0  0  0  0  0  0  0
    3.9280   -0.5880   18.5030 N   0  0  0  0  0  0  0  0  0  0  0  0
    5.3460   -1.0400   18.4090 C   0  0  0  0  0  0  0  0  0  0  0  0
    5.7950   -1.6010   19.7680 C   0  0  0  0  0  0  0  0  0  0  0  0
    4.9120   -2.7390   20.1510 N   0  0  0  0  0  0  0  0  0  0  0  0
    3.4950   -2.2900   20.2450 C   0  0  0  0  0  0  0  0  0  0  0  0
    3.0440   -1.7250   18.8860 C   0  0  0  0  0  0  0  0  0  0  0  0
   -5.5010    3.8380   11.9770 N   0  0  0  0  0  0  0  0  0  0  0  0
   -6.4110    3.3700   12.9520 C   0  0  0  0  0  0  0  0  0  0  0  0
   -5.7760    3.2220   14.2060 C   0  0  0  0  0  0  0  0  0  0  0  0
   -3.3600    3.6880   14.9200 C   0  0  0  0  0  0  0  0  0  0  0  0
   -2.0980    4.1520   14.4590 C   0  0  0  0  0  0  0  0  0  0  0  0
   -1.9350    4.5270   13.0970 C   0  0  0  0  0  0  0  0  0  0  0  0
   -3.0330    4.4400   12.1990 C   0  0  0  0  0  0  0  0  0  0  0  0
   -4.3050    3.9860   12.6690 C   0  0  0  0  0  0  0  0  0  0  0  0
   -4.4680    3.6140   14.0160 C   0  0  0  0  0  0  0  0  0  0  0  0
  1  2  2  0  0  0  0
  1  6  1  0  0  0  0
  2  3  1  0  0  0  0
  2 26  1  0  0  0  0
  3  4  2  0  0  0  0
  4  5  1  0  0  0  0
  4 12  1  0  0  0  0
  5  6  2  0  0  0  0
  5 11  1  0  0  0  0
  7  8  1  0  0  0  0
  8  9  1  0  0  0  0
  9 10  1  0  0  0  0
 10 11  1  0  0  0  0
 12 13  1  0  0  0  0
 13 14  1  0  0  0  0
 14 15  1  0  0  0  0
 15 16  1  0  0  0  0
 16 17  1  0  0  0  0
 16 21  1  0  0  0  0
 17 18  1  0  0  0  0
 18 19  1  0  0  0  0
 19 20  1  0  0  0  0
 20 21  1  0  0  0  0
 22 23  1  0  0  0  0
 22 29  1  0  0  0  0
 23 24  2  0  0  0  0
 24 30  1  0  0  0  0
 25 26  2  0  0  0  0
 25 30  1  0  0  0  0
 26 27  1  0  0  0  0
 27 28  2  0  0  0  0
 28 29  1  0  0  0  0
 29 30  2  0  0  0  0
A    1
C1
A    2
C2
A    3
C3
A    4
C4
A    5
C5
A    6
C6
A    7
N
A    8
CB
A    9
CA
A   10
C
A   11
O
A   12
CA1
A   13
NB
A   14
CG
A   15
CD
A   16
NE
A   17
CH1
A   18
CI1
A   19
NJ
A   20
CI2
A   21
CH2
A   22
N1
A   23
C21
A   24
C31
A   25
C41
A   26
C51
A   27
C61
A   28
C71
A   29
C81
A   30
C91
M  END
>  <InstanceId>
1UTS_P13_B_1046

>  <ChemCompId>
P13

>  <PdbId>
1UTS

>  <ChainId>
B

>  <ResidueNumber>
1046

>  <InsertionCode>


>  <Model>
1

>  <AltIds>


>  <MissingHeavyAtoms>
0

>  <ObservedFormula>
C24 N5 O

>  <Name>
N-[2-(3-AMINOPROPOXY)-5-(1H-INDOL-5-YL)BENZYL]-N-(2-PIPERAZIN-1-YLETHYL)AMINE

>  <SystematicName>
3-[4-(1H-indol-5-yl)-2-[(2-piperazin-1-ylethylamino)methyl]phenoxy]propan-1-amine

>  <Synonyms>
RBT550 INHIBITOR

>  <Type>
NON-POLYMER

>  <Formula>
C24 H33 N5 O

>  <MolecularWeight>
407.552

>  <ModifiedDate>
2011-06-04

>  <Parent>


>  <OneLetterCode>


>  <SubcomponentList>


>  <AmbiguousFlag>
N

>  <InChI>
InChI=1S/C24H33N5O/c25-7-1-15-30-24-5-3-20(19-2-4-23-21(16-19)6-8-28-23)17-22(24)18-27-11-14-29-12-9-26-10-13-29/h2-6,8,16-17,26-28H,1,7,9-15,18,25H2

>  <InChIKey>
WVRJFVULANTNJW-UHFFFAOYSA-N

>  <SMILES>
c1cc2c(cc[nH]2)cc1c3ccc(c(c3)CNCCN4CCNCC4)OCCCN

$$$$
