@<TRIPOS>MOLECULE
1UTS_P13_B_1046
 30 33 0 0 0
SMALL
GASTEIGER
****
Coordinates from PDB:1UTS:B:1046 Model:1 without hydrogens
@<TRIPOS>ATOM
      1 C          -1.0850    5.1500   16.4350 C.ar    1  UNL1        0.0031
      2 C          -1.0180    4.2460   15.3480 C.ar    1  UNL1       -0.0001
      3 C           0.1410    3.4460   15.1630 C.ar    1  UNL1        0.0001
      4 C           1.2330    3.5480   16.0680 C.ar    1  UNL1        0.0292
      5 C           1.1700    4.4720   17.1540 C.ar    1  UNL1        0.1359
      6 C           0.0060    5.2680   17.3360 C.ar    1  UNL1        0.0366
      7 N           5.2650    4.8110   21.0040 N.3     1  UNL1       -0.1313
      8 C           4.2450    4.0950   20.2050 C.3     1  UNL1        0.1131
      9 C           2.8840    4.7660   20.3990 C.3     1  UNL1        0.0678
     10 C           1.8860    4.2030   19.3830 C.3     1  UNL1        0.2069
     11 O           2.2750    4.6040   18.0610 O.3     1  UNL1       -0.4757
     12 C           2.4820    2.6710   15.8470 C.3     1  UNL1        0.1180
     13 N           3.1510    2.3920   17.1380 N.3     1  UNL1       -0.2117
     14 C           4.1560    1.3110   16.9580 C.3     1  UNL1        0.1064
     15 C           3.4980   -0.0520   17.1920 C.3     1  UNL1        0.0912
     16 N           3.9280   -0.5880   18.5030 N.3     1  UNL1       -0.2690
     17 C           5.3460   -1.0400   18.4090 C.3     1  UNL1        0.0912
     18 C           5.7950   -1.6010   19.7680 C.3     1  UNL1        0.1060
     19 N           4.9120   -2.7390   20.1510 N.3     1  UNL1       -0.2151
     20 C           3.4950   -2.2900   20.2450 C.3     1  UNL1        0.1060
     21 C           3.0440   -1.7250   18.8860 C.3     1  UNL1        0.0912
     22 N          -5.5010    3.8380   11.9770 N.ar    1  UNL1       -0.2438
     23 C          -6.4110    3.3700   12.9520 C.ar    1  UNL1        0.0989
     24 C          -5.7760    3.2220   14.2060 C.ar    1  UNL1        0.0221
     25 C          -3.3600    3.6880   14.9200 C.ar    1  UNL1        0.0015
     26 C          -2.0980    4.1520   14.4590 C.ar    1  UNL1        0.0001
     27 C          -1.9350    4.5270   13.0970 C.ar    1  UNL1        0.0015
     28 C          -3.0330    4.4400   12.1990 C.ar    1  UNL1        0.0191
     29 C          -4.3050    3.9860   12.6690 C.ar    1  UNL1        0.0814
     30 C          -4.4680    3.6140   14.0160 C.ar    1  UNL1        0.0192
@<TRIPOS>BOND
     1     1     2   ar
     2     1     6   ar
     3     2     3   ar
     4     2    26    1
     5     3     4   ar
     6     4     5   ar
     7     4    12    1
     8     5     6   ar
     9     5    11    1
    10     7     8    1
    11     8     9    1
    12     9    10    1
    13    10    11    1
    14    12    13    1
    15    13    14    1
    16    14    15    1
    17    15    16    1
    18    16    17    1
    19    16    21    1
    20    17    18    1
    21    18    19    1
    22    19    20    1
    23    20    21    1
    24    22    23   ar
    25    22    29   ar
    26    23    24   ar
    27    24    30   ar
    28    25    26   ar
    29    25    30   ar
    30    26    27   ar
    31    27    28   ar
    32    28    29   ar
    33    29    30   ar
