REMARK  10 active torsions:
REMARK  status: ('A' for Active; 'I' for Inactive)
REMARK    1  A    between atoms: C_2  and  C_26 
REMARK    2  A    between atoms: C_4  and  C_12 
REMARK    3  A    between atoms: C_5  and  O_11 
REMARK    4  A    between atoms: C_8  and  C_9 
REMARK    5  A    between atoms: C_9  and  C_10 
REMARK    6  A    between atoms: C_10  and  O_11 
REMARK    7  A    between atoms: C_12  and  N_13 
REMARK    8  A    between atoms: N_13  and  C_14 
REMARK    9  A    between atoms: C_14  and  C_15 
REMARK   10  A    between atoms: C_15  and  N_16 
ROOT
ATOM      1  C   UNL d   1      -1.085   5.150  16.435  0.00  0.00     0.002 A 
ATOM      2  C   UNL d   1      -1.018   4.246  15.348  0.00  0.00    -0.000 A 
ATOM      3  C   UNL d   1       0.141   3.446  15.163  0.00  0.00    -0.000 A 
ATOM      4  C   UNL d   1       1.233   3.548  16.068  0.00  0.00     0.036 A 
ATOM      5  C   UNL d   1       1.170   4.472  17.154  0.00  0.00     0.092 A 
ATOM      6  C   UNL d   1       0.006   5.268  17.336  0.00  0.00     0.024 A 
ENDROOT
BRANCH   4   7
ATOM      7  C   UNL d   1       2.482   2.671  15.847  0.00  0.00     0.319 C 
BRANCH   7   8
ATOM      8  N   UNL d   1       3.151   2.392  17.138  0.00  0.00     0.346 N 
BRANCH   8   9
ATOM      9  C   UNL d   1       4.156   1.311  16.958  0.00  0.00     0.326 C 
BRANCH   9  10
ATOM     10  C   UNL d   1       3.498  -0.052  17.192  0.00  0.00     0.288 C 
BRANCH  10  11
ATOM     11  N   UNL d   1       3.928  -0.588  18.503  0.00  0.00     0.144 N 
ATOM     12  C   UNL d   1       5.346  -1.040  18.409  0.00  0.00     0.288 C 
ATOM     13  C   UNL d   1       5.795  -1.601  19.768  0.00  0.00     0.325 C 
ATOM     14  N   UNL d   1       4.912  -2.739  20.151  0.00  0.00     0.343 N 
ATOM     15  C   UNL d   1       3.495  -2.290  20.245  0.00  0.00     0.325 C 
ATOM     16  C   UNL d   1       3.044  -1.725  18.886  0.00  0.00     0.288 C 
ENDBRANCH  10  11
ENDBRANCH   9  10
ENDBRANCH   8   9
ENDBRANCH   7   8
ENDBRANCH   4   7
BRANCH   5  17
ATOM     17  O   UNL d   1       2.275   4.604  18.061  0.00  0.00    -0.331 OA
BRANCH  17  18
ATOM     18  C   UNL d   1       1.886   4.203  19.383  0.00  0.00     0.151 C 
BRANCH  18  19
ATOM     19  C   UNL d   1       2.884   4.766  20.399  0.00  0.00     0.074 C 
BRANCH  19  20
ATOM     20  C   UNL d   1       4.245   4.095  20.205  0.00  0.00     0.341 C 
ATOM     21  N   UNL d   1       5.265   4.811  21.004  0.00  0.00     0.618 N 
ENDBRANCH  19  20
ENDBRANCH  18  19
ENDBRANCH  17  18
ENDBRANCH   5  17
BRANCH   2  22
ATOM     22  C   UNL d   1      -2.098   4.152  14.459  0.00  0.00     0.000 A 
ATOM     23  C   UNL d   1      -3.360   3.688  14.920  0.00  0.00     0.002 A 
ATOM     24  C   UNL d   1      -4.468   3.614  14.016  0.00  0.00     0.019 A 
ATOM     25  C   UNL d   1      -5.776   3.222  14.206  0.00  0.00     0.022 A 
ATOM     26  C   UNL d   1      -4.305   3.986  12.669  0.00  0.00     0.081 A 
ATOM     27  C   UNL d   1      -6.411   3.370  12.952  0.00  0.00     0.099 A 
ATOM     28  N   UNL d   1      -5.501   3.838  11.977  0.00  0.00    -0.244 NA
ATOM     29  C   UNL d   1      -3.033   4.440  12.199  0.00  0.00     0.019 A 
ATOM     30  C   UNL d   1      -1.935   4.527  13.097  0.00  0.00     0.002 A 
ENDBRANCH   2  22
TORSDOF 10
