@<TRIPOS>MOLECULE
3D2X_D2X_A_85
 44 45 0 0 0
SMALL
GASTEIGER

@<TRIPOS>ATOM
      1 O          -2.2843    7.3657    4.4393 O.3     1  UNL1       -0.3023
      2 P          -1.6354    8.6436    3.6995 P.3     1  UNL1        0.4808
      3 O          -0.6227    9.3852    4.5200 O.2     1  UNL1       -0.2271
      4 O          -2.9005    9.5124    3.1976 O.3     1  UNL1       -0.3023
      5 O          -1.0658    8.0283    2.3219 O.3     1  UNL1       -0.1862
      6 P           0.3494    8.3549    1.6162 P.3     1  UNL1        0.4834
      7 O           1.0236    9.6041    2.0994 O.2     1  UNL1       -0.2269
      8 O          -0.0109    8.3362    0.0448 O.3     1  UNL1       -0.3022
      9 O           1.1945    7.0009    1.8361 O.3     1  UNL1       -0.2860
     10 C           0.8464    5.8109    1.1394 C.3     1  UNL1        0.0637
     11 C           1.5235    4.6800    1.8890 C.3     1  UNL1        0.0088
     12 C           1.5006    3.3768    1.1479 C.ar    1  UNL1        0.0636
     13 C           2.5655    2.7044    0.5494 C.ar    1  UNL1        0.1915
     14 C           3.9865    2.7285    1.0527 C.3     1  UNL1        0.0216
     15 N           2.0961    1.5078    0.0000 N.ar    1  UNL1       -0.1903
     16 C           0.8043    1.5274   -0.2988 C.ar    1  UNL1        0.2109
     17 S           0.0145    2.8263    0.4541 S.2     1  UNL1       -0.0273
     18 C           2.9514    0.5547   -0.7003 C.3     1  UNL1        0.1829
     19 C           2.7258   -0.8752   -0.2826 C.ar    1  UNL1        0.0964
     20 C           1.9832   -1.2791    0.8156 C.ar    1  UNL1        0.0439
     21 N           1.8717   -2.5752    1.1815 N.ar    1  UNL1       -0.2399
     22 C           2.1935   -3.4804    0.2314 C.ar    1  UNL1        0.1297
     23 C           1.9646   -4.9190    0.5517 C.3     1  UNL1       -0.0045
     24 N           2.7150   -3.1930   -0.9757 N.ar    1  UNL1       -0.1980
     25 C           2.8992   -1.8824   -1.2229 C.ar    1  UNL1        0.2248
     26 O           3.4576   -1.5882   -2.4434 O.3     1  UNL1       -0.4920
     27 H          -1.9686    7.1940    5.3517 H       1  UNL1        0.2220
     28 H          -2.8156    9.9715    2.3340 H       1  UNL1        0.2220
     29 H           0.1403    7.4927   -0.4265 H       1  UNL1        0.2220
     30 H          -0.2455    5.6968    1.1240 H       1  UNL1        0.0569
     31 H           1.2052    5.8772    0.1054 H       1  UNL1        0.0569
     32 H           1.0336    4.5590    2.8608 H       1  UNL1        0.0343
     33 H           2.5632    4.9651    2.0883 H       1  UNL1        0.0343
     34 H           4.0419    2.8891    2.1331 H       1  UNL1        0.0336
     35 H           4.5421    3.5293    0.5524 H       1  UNL1        0.0336
     36 H           4.5432    1.8099    0.8798 H       1  UNL1        0.0336
     37 H           0.3046    0.7793   -0.8995 H       1  UNL1        0.1462
     38 H           4.0118    0.7365   -0.5342 H       1  UNL1        0.1087
     39 H           2.8013    0.7131   -1.7754 H       1  UNL1        0.1087
     40 H           1.7363   -0.5904    1.6221 H       1  UNL1        0.0837
     41 H           2.8309   -5.3322    1.0757 H       1  UNL1        0.0308
     42 H           1.7950   -5.4921   -0.3650 H       1  UNL1        0.0308
     43 H           1.0816   -5.0153    1.1889 H       1  UNL1        0.0308
     44 H           4.0269   -0.8080   -2.3262 H       1  UNL1        0.2937
@<TRIPOS>BOND
     1     2     1    1
     2     3     2    2
     3     4     2    1
     4     5     2    1
     5     6     5    1
     6     7     6    2
     7     8     6    1
     8     9     6    1
     9    10     9    1
    10    11    10    1
    11    12    11    1
    12    13    12   ar
    13    14    13    1
    14    15    13   ar
    15    16    15   ar
    16    17    16   ar
    17    17    12   ar
    18    18    15    1
    19    19    18    1
    20    20    19   ar
    21    21    20   ar
    22    22    21   ar
    23    23    22    1
    24    24    22   ar
    25    25    24   ar
    26    25    19   ar
    27    26    25    1
    28     1    27    1
    29     4    28    1
    30     8    29    1
    31    10    30    1
    32    10    31    1
    33    11    32    1
    34    11    33    1
    35    14    34    1
    36    14    35    1
    37    14    36    1
    38    16    37    1
    39    18    38    1
    40    18    39    1
    41    20    40    1
    42    23    41    1
    43    23    42    1
    44    23    43    1
    45    26    44    1
