3D2X_D2X_A_85
  1228              3D

 44 45  0  0  0  0  0  0  0  0999 V2000
   -2.2843    7.3657    4.4393 O   0  0  0  0  0  0  0  0  0  0  0  0
   -1.6354    8.6436    3.6995 P   0  0  0  0  0  0  0  0  0  0  0  0
   -0.6227    9.3852    4.5200 O   0  0  0  0  0  0  0  0  0  0  0  0
   -2.9005    9.5124    3.1976 O   0  0  0  0  0  0  0  0  0  0  0  0
   -1.0658    8.0283    2.3219 O   0  0  0  0  0  0  0  0  0  0  0  0
    0.3494    8.3549    1.6162 P   0  0  0  0  0  0  0  0  0  0  0  0
    1.0236    9.6041    2.0994 O   0  0  0  0  0  0  0  0  0  0  0  0
   -0.0109    8.3362    0.0448 O   0  0  0  0  0  0  0  0  0  0  0  0
    1.1945    7.0009    1.8361 O   0  0  0  0  0  0  0  0  0  0  0  0
    0.8464    5.8109    1.1394 C   0  0  0  0  0  0  0  0  0  0  0  0
    1.5235    4.6800    1.8890 C   0  0  0  0  0  0  0  0  0  0  0  0
    1.5006    3.3768    1.1479 C   0  0  0  0  0  0  0  0  0  0  0  0
    2.5655    2.7044    0.5494 C   0  0  0  0  0  0  0  0  0  0  0  0
    3.9865    2.7285    1.0527 C   0  0  0  0  0  0  0  0  0  0  0  0
    2.0961    1.5078    0.0000 N   0  3  0  0  0  0  0  0  0  0  0  0
    0.8043    1.5274   -0.2988 C   0  0  0  0  0  0  0  0  0  0  0  0
    0.0145    2.8263    0.4541 S   0  0  0  0  0  0  0  0  0  0  0  0
    2.9514    0.5547   -0.7003 C   0  0  0  0  0  0  0  0  0  0  0  0
    2.7258   -0.8752   -0.2826 C   0  0  0  0  0  0  0  0  0  0  0  0
    1.9832   -1.2791    0.8156 C   0  0  0  0  0  0  0  0  0  0  0  0
    1.8717   -2.5752    1.1815 N   0  0  0  0  0  0  0  0  0  0  0  0
    2.1935   -3.4804    0.2314 C   0  0  0  0  0  0  0  0  0  0  0  0
    1.9646   -4.9190    0.5517 C   0  0  0  0  0  0  0  0  0  0  0  0
    2.7150   -3.1930   -0.9757 N   0  0  0  0  0  0  0  0  0  0  0  0
    2.8992   -1.8824   -1.2229 C   0  0  0  0  0  0  0  0  0  0  0  0
    3.4576   -1.5882   -2.4434 O   0  0  0  0  0  0  0  0  0  0  0  0
   -1.9686    7.1940    5.3517 H   0  0  0  0  0  0  0  0  0  0  0  0
   -2.8156    9.9715    2.3340 H   0  0  0  0  0  0  0  0  0  0  0  0
    0.1403    7.4927   -0.4265 H   0  0  0  0  0  0  0  0  0  0  0  0
   -0.2455    5.6968    1.1240 H   0  0  0  0  0  0  0  0  0  0  0  0
    1.2052    5.8772    0.1054 H   0  0  0  0  0  0  0  0  0  0  0  0
    1.0336    4.5590    2.8608 H   0  0  0  0  0  0  0  0  0  0  0  0
    2.5632    4.9651    2.0883 H   0  0  0  0  0  0  0  0  0  0  0  0
    4.0419    2.8891    2.1331 H   0  0  0  0  0  0  0  0  0  0  0  0
    4.5421    3.5293    0.5524 H   0  0  0  0  0  0  0  0  0  0  0  0
    4.5432    1.8099    0.8798 H   0  0  0  0  0  0  0  0  0  0  0  0
    0.3046    0.7793   -0.8995 H   0  0  0  0  0  0  0  0  0  0  0  0
    4.0118    0.7365   -0.5342 H   0  0  0  0  0  0  0  0  0  0  0  0
    2.8013    0.7131   -1.7754 H   0  0  0  0  0  0  0  0  0  0  0  0
    1.7363   -0.5904    1.6221 H   0  0  0  0  0  0  0  0  0  0  0  0
    2.8309   -5.3322    1.0757 H   0  0  0  0  0  0  0  0  0  0  0  0
    1.7950   -5.4921   -0.3650 H   0  0  0  0  0  0  0  0  0  0  0  0
    1.0816   -5.0153    1.1889 H   0  0  0  0  0  0  0  0  0  0  0  0
    4.0269   -0.8080   -2.3262 H   0  0  0  0  0  0  0  0  0  0  0  0
  2  1  1  0  0  0  0
  3  2  2  0  0  0  0
  4  2  1  0  0  0  0
  5  2  1  0  0  0  0
  6  5  1  0  0  0  0
  7  6  2  0  0  0  0
  8  6  1  0  0  0  0
  9  6  1  0  0  0  0
 10  9  1  0  0  0  0
 11 10  1  0  0  0  0
 12 11  1  0  0  0  0
 13 12  2  0  0  0  0
 14 13  1  0  0  0  0
 15 13  1  0  0  0  0
 16 15  2  0  0  0  0
 17 16  1  0  0  0  0
 17 12  1  0  0  0  0
 18 15  1  0  0  0  0
 19 18  1  0  0  0  0
 20 19  2  0  0  0  0
 21 20  1  0  0  0  0
 22 21  2  0  0  0  0
 23 22  1  0  0  0  0
 24 22  1  0  0  0  0
 25 24  2  0  0  0  0
 25 19  1  0  0  0  0
 26 25  1  0  0  0  0
  1 27  1  0  0  0  0
  4 28  1  0  0  0  0
  8 29  1  0  0  0  0
 10 30  1  0  0  0  0
 10 31  1  0  0  0  0
 11 32  1  0  0  0  0
 11 33  1  0  0  0  0
 14 34  1  0  0  0  0
 14 35  1  0  0  0  0
 14 36  1  0  0  0  0
 16 37  1  0  0  0  0
 18 38  1  0  0  0  0
 18 39  1  0  0  0  0
 20 40  1  0  0  0  0
 23 41  1  0  0  0  0
 23 42  1  0  0  0  0
 23 43  1  0  0  0  0
 26 44  1  0  0  0  0
M  CHG  1  15   1
M  END
>  <energy>
34.549509742525785

$$$$
