@<TRIPOS>MOLECULE
3F2Q_FMN_X_200
 52 54 0 0 0
SMALL
GASTEIGER

@<TRIPOS>ATOM
      1 N          -1.6553   -3.3348   -0.0047 N.ar    1  UNL1       -0.1733
      2 C          -2.2424   -4.2260   -0.8829 C.ar    1  UNL1        0.3505
      3 O          -1.7109   -5.2921   -1.1974 O.2     1  UNL1       -0.2446
      4 N          -3.4610   -3.8483   -1.4344 N.ar    1  UNL1       -0.2717
      5 H          -4.0294   -4.5977   -1.8204 H       1  UNL1        0.1735
      6 C          -3.5607   -2.6144   -2.0383 C.ar    1  UNL1        0.2817
      7 O          -4.2178   -2.2961   -3.0129 O.2     1  UNL1       -0.2653
      8 C          -2.7336   -1.6085   -1.3132 C.ar    1  UNL1        0.1712
      9 N          -2.4000   -0.5003   -1.8956 N.ar    1  UNL1       -0.2368
     10 C          -2.1693    0.5487   -0.9662 C.ar    1  UNL1        0.0886
     11 C          -2.6420    1.8350   -1.2470 C.ar    1  UNL1       -0.0311
     12 C          -2.3210    2.9229   -0.4203 C.ar    1  UNL1       -0.0454
     13 C          -2.9449    4.2580   -0.7235 C.3     1  UNL1       -0.0394
     14 C          -1.4598    2.7131    0.6719 C.ar    1  UNL1       -0.0455
     15 C          -1.1772    3.7969    1.6842 C.3     1  UNL1       -0.0394
     16 C          -1.0066    1.4080    0.9564 C.ar    1  UNL1       -0.0329
     17 C          -1.3074    0.3052    0.1308 C.ar    1  UNL1        0.0694
     18 N          -1.3335   -1.0385    0.6697 N.ar    1  UNL1       -0.3195
     19 C          -1.8343   -2.0540   -0.1540 C.ar    1  UNL1        0.1705
     20 C          -0.3467   -1.3718    1.7264 C.3     1  UNL1        0.0538
     21 C          -1.0104   -1.3170    3.1209 C.3     1  UNL1        0.1014
     22 H          -1.6971   -0.4621    3.1427 H       1  UNL1        0.0638
     23 O          -0.0125   -1.0207    4.0940 O.3     1  UNL1       -0.3874
     24 C          -1.8008   -2.6014    3.4859 C.3     1  UNL1        0.1106
     25 H          -2.0293   -3.1374    2.5595 H       1  UNL1        0.0646
     26 O          -3.0658   -2.2201    4.0302 O.3     1  UNL1       -0.3865
     27 C          -1.1214   -3.6190    4.4307 C.3     1  UNL1        0.1073
     28 H          -0.0785   -3.7477    4.1189 H       1  UNL1        0.0643
     29 O          -1.7363   -4.9046    4.2540 O.3     1  UNL1       -0.3868
     30 C          -1.1767   -3.2987    5.9290 C.3     1  UNL1        0.0875
     31 O          -0.1125   -4.0053    6.5651 O.3     1  UNL1       -0.2841
     32 P          -0.3509   -4.8921    7.8953 P.3     1  UNL1        0.4724
     33 O          -1.7635   -5.2895    8.2083 O.2     1  UNL1       -0.2275
     34 O           0.6632   -6.1369    7.6845 O.3     1  UNL1       -0.3026
     35 O           0.3868   -4.0318    9.0504 O.3     1  UNL1       -0.3026
     36 H          -3.2856    1.9891   -2.1118 H       1  UNL1        0.0642
     37 H          -3.0395    4.4070   -1.8048 H       1  UNL1        0.0278
     38 H          -2.3578    5.0949   -0.3366 H       1  UNL1        0.0278
     39 H          -3.9458    4.3041   -0.2807 H       1  UNL1        0.0278
     40 H          -2.0936    4.0652    2.2187 H       1  UNL1        0.0278
     41 H          -0.7726    4.6859    1.1895 H       1  UNL1        0.0278
     42 H          -0.4326    3.4749    2.4202 H       1  UNL1        0.0278
     43 H          -0.1138    1.3367    1.5915 H       1  UNL1        0.0641
     44 H           0.0657   -2.3756    1.5608 H       1  UNL1        0.0519
     45 H           0.5281   -0.7121    1.6775 H       1  UNL1        0.0519
     46 H           0.6888   -1.6891    4.0203 H       1  UNL1        0.2100
     47 H          -3.5509   -1.7579    3.3237 H       1  UNL1        0.2100
     48 H          -2.6480   -4.7701    3.9432 H       1  UNL1        0.2100
     49 H          -1.0231   -2.2334    6.1254 H       1  UNL1        0.0592
     50 H          -2.1416   -3.5815    6.3640 H       1  UNL1        0.0592
     51 H           1.2867   -6.3721    8.4052 H       1  UNL1        0.2220
     52 H           1.3622   -4.0952    9.1383 H       1  UNL1        0.2220
@<TRIPOS>BOND
     1     2     1   ar
     2     3     2    2
     3     4     2   ar
     4     4     5    1
     5     6     4   ar
     6     7     6    2
     7     8     6   ar
     8     9     8   ar
     9    10     9   ar
    10    11    10   ar
    11    12    11   ar
    12    13    12    1
    13    14    12   ar
    14    15    14    1
    15    16    14   ar
    16    17    16   ar
    17    17    10   ar
    18    18    17   ar
    19    19    18   ar
    20    19     1   ar
    21    19     8   ar
    22    20    18    1
    23    21    20    1
    24    21    22    1
    25    23    21    1
    26    24    21    1
    27    24    25    1
    28    26    24    1
    29    27    24    1
    30    27    28    1
    31    29    27    1
    32    30    27    1
    33    31    30    1
    34    32    31    1
    35    33    32    2
    36    34    32    1
    37    35    32    1
    38    11    36    1
    39    13    37    1
    40    13    38    1
    41    13    39    1
    42    15    40    1
    43    15    41    1
    44    15    42    1
    45    16    43    1
    46    20    44    1
    47    20    45    1
    48    23    46    1
    49    26    47    1
    50    29    48    1
    51    30    49    1
    52    30    50    1
    53    34    51    1
    54    35    52    1
