3F2Q_FMN_X_200
  1228              3D

 52 54  0  0  0  0  0  0  0  0999 V2000
   -1.6553   -3.3348   -0.0047 N   0  0  0  0  0  0  0  0  0  0  0  0
   -2.2424   -4.2260   -0.8829 C   0  0  0  0  0  0  0  0  0  0  0  0
   -1.7109   -5.2921   -1.1974 O   0  0  0  0  0  0  0  0  0  0  0  0
   -3.4610   -3.8483   -1.4344 N   0  0  0  0  0  0  0  0  0  0  0  0
   -4.0294   -4.5977   -1.8204 H   0  0  0  0  0  0  0  0  0  0  0  0
   -3.5607   -2.6144   -2.0383 C   0  0  0  0  0  0  0  0  0  0  0  0
   -4.2178   -2.2961   -3.0129 O   0  0  0  0  0  0  0  0  0  0  0  0
   -2.7336   -1.6085   -1.3132 C   0  0  0  0  0  0  0  0  0  0  0  0
   -2.4000   -0.5003   -1.8956 N   0  0  0  0  0  0  0  0  0  0  0  0
   -2.1693    0.5487   -0.9662 C   0  0  0  0  0  0  0  0  0  0  0  0
   -2.6420    1.8350   -1.2470 C   0  0  0  0  0  0  0  0  0  0  0  0
   -2.3210    2.9229   -0.4203 C   0  0  0  0  0  0  0  0  0  0  0  0
   -2.9449    4.2580   -0.7235 C   0  0  0  0  0  0  0  0  0  0  0  0
   -1.4598    2.7131    0.6719 C   0  0  0  0  0  0  0  0  0  0  0  0
   -1.1772    3.7969    1.6842 C   0  0  0  0  0  0  0  0  0  0  0  0
   -1.0066    1.4080    0.9564 C   0  0  0  0  0  0  0  0  0  0  0  0
   -1.3074    0.3052    0.1308 C   0  0  0  0  0  0  0  0  0  0  0  0
   -1.3335   -1.0385    0.6697 N   0  0  0  0  0  0  0  0  0  0  0  0
   -1.8343   -2.0540   -0.1540 C   0  0  0  0  0  0  0  0  0  0  0  0
   -0.3467   -1.3718    1.7264 C   0  0  0  0  0  0  0  0  0  0  0  0
   -1.0104   -1.3170    3.1209 C   0  0  0  0  0  0  0  0  0  0  0  0
   -1.6971   -0.4621    3.1427 H   0  0  0  0  0  0  0  0  0  0  0  0
   -0.0125   -1.0207    4.0940 O   0  0  0  0  0  0  0  0  0  0  0  0
   -1.8008   -2.6014    3.4859 C   0  0  0  0  0  0  0  0  0  0  0  0
   -2.0293   -3.1374    2.5595 H   0  0  0  0  0  0  0  0  0  0  0  0
   -3.0658   -2.2201    4.0302 O   0  0  0  0  0  0  0  0  0  0  0  0
   -1.1214   -3.6190    4.4307 C   0  0  0  0  0  0  0  0  0  0  0  0
   -0.0785   -3.7477    4.1189 H   0  0  0  0  0  0  0  0  0  0  0  0
   -1.7363   -4.9046    4.2540 O   0  0  0  0  0  0  0  0  0  0  0  0
   -1.1767   -3.2987    5.9290 C   0  0  0  0  0  0  0  0  0  0  0  0
   -0.1125   -4.0053    6.5651 O   0  0  0  0  0  0  0  0  0  0  0  0
   -0.3509   -4.8921    7.8953 P   0  0  0  0  0  0  0  0  0  0  0  0
   -1.7635   -5.2895    8.2083 O   0  0  0  0  0  0  0  0  0  0  0  0
    0.6632   -6.1369    7.6845 O   0  0  0  0  0  0  0  0  0  0  0  0
    0.3868   -4.0318    9.0504 O   0  0  0  0  0  0  0  0  0  0  0  0
   -3.2856    1.9891   -2.1118 H   0  0  0  0  0  0  0  0  0  0  0  0
   -3.0395    4.4070   -1.8048 H   0  0  0  0  0  0  0  0  0  0  0  0
   -2.3578    5.0949   -0.3366 H   0  0  0  0  0  0  0  0  0  0  0  0
   -3.9458    4.3041   -0.2807 H   0  0  0  0  0  0  0  0  0  0  0  0
   -2.0936    4.0652    2.2187 H   0  0  0  0  0  0  0  0  0  0  0  0
   -0.7726    4.6859    1.1895 H   0  0  0  0  0  0  0  0  0  0  0  0
   -0.4326    3.4749    2.4202 H   0  0  0  0  0  0  0  0  0  0  0  0
   -0.1138    1.3367    1.5915 H   0  0  0  0  0  0  0  0  0  0  0  0
    0.0657   -2.3756    1.5608 H   0  0  0  0  0  0  0  0  0  0  0  0
    0.5281   -0.7121    1.6775 H   0  0  0  0  0  0  0  0  0  0  0  0
    0.6888   -1.6891    4.0203 H   0  0  0  0  0  0  0  0  0  0  0  0
   -3.5509   -1.7579    3.3237 H   0  0  0  0  0  0  0  0  0  0  0  0
   -2.6480   -4.7701    3.9432 H   0  0  0  0  0  0  0  0  0  0  0  0
   -1.0231   -2.2334    6.1254 H   0  0  0  0  0  0  0  0  0  0  0  0
   -2.1416   -3.5815    6.3640 H   0  0  0  0  0  0  0  0  0  0  0  0
    1.2867   -6.3721    8.4052 H   0  0  0  0  0  0  0  0  0  0  0  0
    1.3622   -4.0952    9.1383 H   0  0  0  0  0  0  0  0  0  0  0  0
  2  1  1  0  0  0  0
  3  2  2  0  0  0  0
  4  2  1  0  0  0  0
  4  5  1  0  0  0  0
  6  4  1  0  0  0  0
  7  6  2  0  0  0  0
  8  6  1  0  0  0  0
  9  8  2  0  0  0  0
 10  9  1  0  0  0  0
 11 10  2  0  0  0  0
 12 11  1  0  0  0  0
 13 12  1  0  0  0  0
 14 12  2  0  0  0  0
 15 14  1  0  0  0  0
 16 14  1  0  0  0  0
 17 16  2  0  0  0  0
 17 10  1  0  0  0  0
 18 17  1  0  0  0  0
 19 18  1  0  0  0  0
 19  1  2  0  0  0  0
 19  8  1  0  0  0  0
 20 18  1  0  0  0  0
 21 20  1  0  0  0  0
 21 22  1  0  0  0  0
 23 21  1  0  0  0  0
 24 21  1  0  0  0  0
 24 25  1  0  0  0  0
 26 24  1  0  0  0  0
 27 24  1  0  0  0  0
 27 28  1  0  0  0  0
 29 27  1  0  0  0  0
 30 27  1  0  0  0  0
 31 30  1  0  0  0  0
 32 31  1  0  0  0  0
 33 32  2  0  0  0  0
 34 32  1  0  0  0  0
 35 32  1  0  0  0  0
 11 36  1  0  0  0  0
 13 37  1  0  0  0  0
 13 38  1  0  0  0  0
 13 39  1  0  0  0  0
 15 40  1  0  0  0  0
 15 41  1  0  0  0  0
 15 42  1  0  0  0  0
 16 43  1  0  0  0  0
 20 44  1  0  0  0  0
 20 45  1  0  0  0  0
 23 46  1  0  0  0  0
 26 47  1  0  0  0  0
 29 48  1  0  0  0  0
 30 49  1  0  0  0  0
 30 50  1  0  0  0  0
 34 51  1  0  0  0  0
 35 52  1  0  0  0  0
M  END
>  <energy>
105.7084606279189

$$$$
