@<TRIPOS>MOLECULE
4F8V_SIS_A_101
 31 33 0 0 0
SMALL
GASTEIGER
****
Coordinates from PDB:4F8V:A:101 Model:1 without hydrogens
@<TRIPOS>ATOM
      1 C           6.8560  -20.8120  -27.8980 C.3     1  UNL1        0.3057
      2 C           3.3710  -20.0500  -31.8900 C.3     1  UNL1        0.1231
      3 C           4.0100  -16.5510  -31.8040 C.3     1  UNL1        0.2683
      4 C           8.3640  -21.0560  -28.2260 C.3     1  UNL1        0.1660
      5 C           2.9500  -21.2560  -30.9610 C.3     1  UNL1        0.0432
      6 C           4.0170  -16.0020  -33.2610 C.3     1  UNL1        0.2262
      7 C           8.7050  -22.6110  -28.2170 C.3     1  UNL1        0.0544
      8 C           4.2540  -21.8870  -30.3340 C.3     1  UNL1        0.1231
      9 C           5.5180  -16.0760  -33.7750 C.3     1  UNL1        0.1384
     10 C           7.7710  -23.4360  -27.2570 C.2     1  UNL1        0.0095
     11 C           5.0160  -20.7810  -29.5100 C.3     1  UNL1        0.1690
     12 C           6.4450  -15.1370  -32.8380 C.3     1  UNL1        0.1710
     13 C           6.7790  -22.8430  -26.5570 C.2     1  UNL1        0.1338
     14 C           5.4100  -19.5750  -30.4590 C.3     1  UNL1        0.2088
     15 C           6.3420  -15.6370  -31.3520 C.3     1  UNL1        0.1765
     16 C           5.8300  -23.6410  -25.6110 C.3     1  UNL1        0.1725
     17 C           4.1250  -18.9600  -31.0680 C.3     1  UNL1        0.1680
     18 C           7.9500  -15.0970  -33.2000 C.3     1  UNL1        0.0371
     19 C           5.9930  -16.5840  -36.1910 C.3     1  UNL1        0.1076
     20 N           2.1890  -19.4780  -32.4660 N.3     1  UNL1       -0.1302
     21 N           8.6540  -20.4310  -29.5220 N.3     1  UNL1       -0.1259
     22 N           3.8890  -23.0160  -29.4540 N.3     1  UNL1       -0.1302
     23 N           5.6200  -15.5870  -35.1770 N.3     1  UNL1       -0.2126
     24 N           4.8130  -22.7630  -25.0320 N.3     1  UNL1       -0.1228
     25 O           6.1470  -21.3730  -28.9930 O.3     1  UNL1       -0.3178
     26 O           3.1640  -16.8110  -34.0540 O.3     1  UNL1       -0.2161
     27 O           6.0370  -13.7770  -32.8830 O.3     1  UNL1       -0.2215
     28 O           6.5250  -21.4450  -26.6420 O.2     1  UNL1       -0.4545
     29 O           6.0890  -18.5510  -29.7180 O.3     1  UNL1       -0.2178
     30 O           4.8930  -15.7160  -30.9320 O.3     1  UNL1       -0.3259
     31 O           4.5170  -17.9060  -31.9090 O.3     1  UNL1       -0.3269
@<TRIPOS>BOND
     1     1    25    1
     2     1    28    1
     3     1     4    1
     4     2    20    1
     5     2     5    1
     6     3    31    1
     7     4    21    1
     8     4     7    1
     9     5     8    1
    10     6     3    1
    11     6    26    1
    12     7    10    1
    13     8    22    1
    14     9    23    1
    15     9     6    1
    16    11    25    1
    17    11     8    1
    18    12    18    1
    19    12    15    1
    20    12     9    1
    21    13    16    1
    22    13    10    2
    23    14    29    1
    24    14    11    1
    25    15    30    1
    26    17    31    1
    27    17    14    1
    28    17     2    1
    29    23    19    1
    30    24    16    1
    31    27    12    1
    32    28    13    1
    33    30     3    1
