REMARK  6 active torsions:
REMARK  status: ('A' for Active; 'I' for Inactive)
REMARK    1  A    between atoms: C_1  and  O_25 
REMARK    2  A    between atoms: C_3  and  O_31 
REMARK    3  A    between atoms: C_9  and  N_23 
REMARK    4  A    between atoms: C_11  and  O_25 
REMARK    5  A    between atoms: C_13  and  C_16 
REMARK    6  A    between atoms: C_17  and  O_31 
ROOT
ATOM      1  C   UNL d   1       3.371 -20.050 -31.890  0.00  0.00     0.334 C 
ATOM      2  C   UNL d   1       2.950 -21.256 -30.961  0.00  0.00     0.083 C 
ATOM      3  C   UNL d   1       4.254 -21.887 -30.334  0.00  0.00     0.334 C 
ATOM      4  C   UNL d   1       5.016 -20.781 -29.510  0.00  0.00     0.188 C 
ATOM      5  C   UNL d   1       5.410 -19.575 -30.459  0.00  0.00     0.210 C 
ATOM      6  C   UNL d   1       4.125 -18.960 -31.068  0.00  0.00     0.188 C 
ATOM      7  N   UNL d   1       2.189 -19.478 -32.466  0.00  0.00     0.619 N 
ATOM      8  N   UNL d   1       3.889 -23.016 -29.454  0.00  0.00     0.619 N 
ATOM      9  O   UNL d   1       6.089 -18.551 -29.718  0.00  0.00    -0.218 OA
ENDROOT
BRANCH   6  10
ATOM     10  O   UNL d   1       4.517 -17.906 -31.909  0.00  0.00    -0.327 OA
BRANCH  10  11
ATOM     11  C   UNL d   1       4.010 -16.551 -31.804  0.00  0.00     0.269 C 
ATOM     12  C   UNL d   1       4.017 -16.002 -33.261  0.00  0.00     0.232 C 
ATOM     13  O   UNL d   1       3.164 -16.811 -34.054  0.00  0.00    -0.216 OA
ATOM     14  C   UNL d   1       5.518 -16.076 -33.775  0.00  0.00     0.164 C 
ATOM     15  C   UNL d   1       6.445 -15.137 -32.838  0.00  0.00     0.177 C 
ATOM     16  C   UNL d   1       7.950 -15.097 -33.200  0.00  0.00     0.038 C 
ATOM     17  C   UNL d   1       6.342 -15.637 -31.352  0.00  0.00     0.177 C 
ATOM     18  O   UNL d   1       6.037 -13.777 -32.883  0.00  0.00    -0.221 OA
ATOM     19  O   UNL d   1       4.893 -15.716 -30.932  0.00  0.00    -0.326 OA
BRANCH  14  20
ATOM     20  N   UNL d   1       5.620 -15.587 -35.177  0.00  0.00    -0.290 NA
ATOM     21  C   UNL d   1       5.993 -16.584 -36.191  0.00  0.00     0.146 C 
ENDBRANCH  14  20
ENDBRANCH  10  11
ENDBRANCH   6  10
BRANCH   4  22
ATOM     22  O   UNL d   1       6.147 -21.373 -28.993  0.00  0.00    -0.327 OA
BRANCH  22  23
ATOM     23  C   UNL d   1       6.856 -20.812 -27.898  0.00  0.00     0.278 C 
ATOM     24  O   UNL d   1       6.525 -21.445 -26.642  0.00  0.00    -0.307 OA
ATOM     25  C   UNL d   1       6.779 -22.843 -26.557  0.00  0.00     0.109 C 
ATOM     26  C   UNL d   1       7.771 -23.436 -27.257  0.00  0.00    -0.002 C 
ATOM     27  C   UNL d   1       8.705 -22.611 -28.217  0.00  0.00     0.072 C 
ATOM     28  C   UNL d   1       8.364 -21.056 -28.226  0.00  0.00     0.362 C 
ATOM     29  N   UNL d   1       8.654 -20.431 -29.522  0.00  0.00     0.622 N 
BRANCH  25  30
ATOM     30  C   UNL d   1       5.830 -23.641 -25.611  0.00  0.00     0.389 C 
ATOM     31  N   UNL d   1       4.813 -22.763 -25.032  0.00  0.00     0.626 N 
ENDBRANCH  25  30
ENDBRANCH  22  23
ENDBRANCH   4  22
TORSDOF 6
