4F8V_SIS_A_101
 OpenBabel10091713583D
Coordinates from PDB:4F8V:A:101 Model:1 without hydrogens
 31 33  0  0  0  0  0  0  0  0999 V2000
    6.8560  -20.8120  -27.8980 C   0  0  1  0  0  0  0  0  0  0  0  0
    3.3710  -20.0500  -31.8900 C   0  0  2  0  0  0  0  0  0  0  0  0
    4.0100  -16.5510  -31.8040 C   0  0  2  0  0  0  0  0  0  0  0  0
    8.3640  -21.0560  -28.2260 C   0  0  1  0  0  0  0  0  0  0  0  0
    2.9500  -21.2560  -30.9610 C   0  0  0  0  0  0  0  0  0  0  0  0
    4.0170  -16.0020  -33.2610 C   0  0  1  0  0  0  0  0  0  0  0  0
    8.7050  -22.6110  -28.2170 C   0  0  0  0  0  0  0  0  0  0  0  0
    4.2540  -21.8870  -30.3340 C   0  0  1  0  0  0  0  0  0  0  0  0
    5.5180  -16.0760  -33.7750 C   0  0  2  0  0  0  0  0  0  0  0  0
    7.7710  -23.4360  -27.2570 C   0  0  0  0  0  0  0  0  0  0  0  0
    5.0160  -20.7810  -29.5100 C   0  0  2  0  0  0  0  0  0  0  0  0
    6.4450  -15.1370  -32.8380 C   0  0  1  0  0  0  0  0  0  0  0  0
    6.7790  -22.8430  -26.5570 C   0  0  0  0  0  0  0  0  0  0  0  0
    5.4100  -19.5750  -30.4590 C   0  0  1  0  0  0  0  0  0  0  0  0
    6.3420  -15.6370  -31.3520 C   0  0  0  0  0  0  0  0  0  0  0  0
    5.8300  -23.6410  -25.6110 C   0  0  0  0  0  0  0  0  0  0  0  0
    4.1250  -18.9600  -31.0680 C   0  0  1  0  0  0  0  0  0  0  0  0
    7.9500  -15.0970  -33.2000 C   0  0  0  0  0  0  0  0  0  0  0  0
    5.9930  -16.5840  -36.1910 C   0  0  0  0  0  0  0  0  0  0  0  0
    2.1890  -19.4780  -32.4660 N   0  0  0  0  0  0  0  0  0  0  0  0
    8.6540  -20.4310  -29.5220 N   0  0  0  0  0  0  0  0  0  0  0  0
    3.8890  -23.0160  -29.4540 N   0  0  0  0  0  0  0  0  0  0  0  0
    5.6200  -15.5870  -35.1770 N   0  0  0  0  0  0  0  0  0  0  0  0
    4.8130  -22.7630  -25.0320 N   0  0  0  0  0  0  0  0  0  0  0  0
    6.1470  -21.3730  -28.9930 O   0  0  0  0  0  0  0  0  0  0  0  0
    3.1640  -16.8110  -34.0540 O   0  0  0  0  0  0  0  0  0  0  0  0
    6.0370  -13.7770  -32.8830 O   0  0  0  0  0  0  0  0  0  0  0  0
    6.5250  -21.4450  -26.6420 O   0  0  0  0  0  0  0  0  0  0  0  0
    6.0890  -18.5510  -29.7180 O   0  0  0  0  0  0  0  0  0  0  0  0
    4.8930  -15.7160  -30.9320 O   0  0  0  0  0  0  0  0  0  0  0  0
    4.5170  -17.9060  -31.9090 O   0  0  0  0  0  0  0  0  0  0  0  0
  1 25  1  6  0  0  0
  1 28  1  0  0  0  0
  1  4  1  0  0  0  0
  2 20  1  1  0  0  0
  2  5  1  0  0  0  0
  3 31  1  6  0  0  0
  4 21  1  6  0  0  0
  4  7  1  0  0  0  0
  5  8  1  0  0  0  0
  6  3  1  0  0  0  0
  6 26  1  6  0  0  0
  7 10  1  0  0  0  0
  8 22  1  1  0  0  0
  9 23  1  6  0  0  0
  9  6  1  0  0  0  0
 11 25  1  6  0  0  0
 11  8  1  0  0  0  0
 12 18  1  6  0  0  0
 12 15  1  0  0  0  0
 12  9  1  0  0  0  0
 13 16  1  0  0  0  0
 13 10  2  0  0  0  0
 14 29  1  1  0  0  0
 14 11  1  0  0  0  0
 15 30  1  0  0  0  0
 17 31  1  6  0  0  0
 17 14  1  0  0  0  0
 17  2  1  0  0  0  0
 23 19  1  0  0  0  0
 24 16  1  0  0  0  0
 27 12  1  0  0  0  0
 28 13  1  0  0  0  0
 30  3  1  0  0  0  0
A    1
C11
A    2
C12
A    3
C13
A    4
C21
A    5
C22
A    6
C23
A    7
C31
A    8
C32
A    9
C33
A   10
C41
A   11
C42
A   12
C43
A   13
C51
A   14
C52
A   15
C53
A   16
C61
A   17
C62
A   18
C83
A   19
C93
A   20
N12
A   21
N21
A   22
N32
A   23
N33
A   24
N61
A   25
O11
A   26
O23
A   27
O43
A   28
O51
A   29
O52
A   30
O53
A   31
O62
M  END
>  <InstanceId>
4F8V_SIS_A_101

>  <ChemCompId>
SIS

>  <PdbId>
4F8V

>  <ChainId>
A

>  <ResidueNumber>
101

>  <InsertionCode>


>  <Model>
1

>  <AltIds>


>  <MissingHeavyAtoms>
0

>  <ObservedFormula>
C19 N5 O7

>  <Name>
(1S,2S,3R,4S,6R)-4,6-diamino-3-{[(2S,3R)-3-amino-6-(aminomethyl)-3,4-dihydro-2H-pyran-2-yl]oxy}-2-hydroxycyclohexyl 3-deoxy-4-C-methyl-3-(methylamino)-beta-L-arabinopyranoside

>  <SystematicName>
(2R,3R,4R,5R)-2-[(1S,2S,3R,4S,6R)-3-[[(2S,3R)-6-(aminomethyl)-3-azanyl-3,4-dihydro-2H-pyran-2-yl]oxy]-4,6-bis(azanyl)-2-oxidanyl-cyclohexyl]oxy-5-methyl-4-(methylamino)oxane-3,5-diol

>  <Synonyms>
Sisomicin

>  <Type>
NON-POLYMER

>  <Formula>
C19 H37 N5 O7

>  <MolecularWeight>
447.526

>  <ModifiedDate>
2012-08-10

>  <Parent>


>  <OneLetterCode>


>  <SubcomponentList>


>  <AmbiguousFlag>
N

>  <InChI>
InChI=1S/C19H37N5O7/c1-19(27)7-28-18(13(26)16(19)24-2)31-15-11(23)5-10(22)14(12(15)25)30-17-9(21)4-3-8(6-20)29-17/h3,9-18,24-27H,4-7,20-23H2,1-2H3/t9-,10+,11-,12+,13-,14-,15+,16-,17-,18-,19+/m1/s1

>  <InChIKey>
URWAJWIAIPFPJE-YFMIWBNJSA-N

>  <SMILES>
C[C@@]1(CO[C@@H]([C@@H]([C@H]1NC)O)O[C@H]2[C@@H](C[C@@H]([C@H]([C@@H]2O)O[C@@H]3[C@@H](CC=C(O3)CN)N)N)N)O

$$$$
