REMARK  8 active torsions:
REMARK  status: ('A' for Active; 'I' for Inactive)
REMARK    1  A    between atoms: O_5  and  P_2 
REMARK    2  A    between atoms: P_6  and  O_5 
REMARK    3  A    between atoms: O_9  and  P_6 
REMARK    4  A    between atoms: O_9  and  C_10 
REMARK    5  A    between atoms: C_10  and  C_11 
REMARK    6  A    between atoms: C_12  and  C_11 
REMARK    7  A    between atoms: C_18  and  N_17 
REMARK    8  A    between atoms: C_19  and  C_18 
ROOT
ATOM      1  C   UNL d   1      -4.839 -40.612   8.378  0.00  0.00     0.023 A 
ATOM      2  C   UNL d   1      -5.103 -40.655   7.014  0.00  0.00     0.040 A 
ATOM      3  C   UNL d   1      -5.687 -41.890   6.324  0.00  0.00     0.050 C 
ATOM      4  S   UNL d   1      -4.193 -39.026   8.697  0.00  0.00    -0.071 SA
ATOM      5  C   UNL d   1      -4.325 -38.513   7.036  0.00  0.00     0.113 A 
ATOM      6  N   UNL d   1      -4.828 -39.536   6.341  0.00  0.00    -0.320 N 
ENDROOT
BRANCH   1   7
ATOM      7  C   UNL d   1      -5.027 -41.678   9.459  0.00  0.00     0.067 C 
BRANCH   7   8
ATOM      8  C   UNL d   1      -4.184 -42.921   9.170  0.00  0.00     0.160 C 
BRANCH   8   9
ATOM      9  O   UNL d   1      -2.793 -42.592   9.147  0.00  0.00    -0.270 OA
BRANCH   9  10
ATOM     10  P   UNL d   1      -2.024 -42.178  10.499  0.00  0.00     0.419 P 
ATOM     11  O   UNL d   1      -2.784 -40.875  11.062  0.00  0.00    -0.624 OA
ATOM     12  O   UNL d   1      -0.575 -41.960  10.289  0.00  0.00    -0.624 OA
BRANCH  10  13
ATOM     13  O   UNL d   1      -2.323 -43.343  11.569  0.00  0.00    -0.173 OA
BRANCH  13  14
ATOM     14  P   UNL d   1      -1.163 -44.378  11.985  0.00  0.00     0.431 P 
ATOM     15  O   UNL d   1      -1.774 -45.841  11.716  0.00  0.00    -0.616 OA
ATOM     16  O   UNL d   1      -0.989 -44.261  13.580  0.00  0.00    -0.616 OA
ATOM     17  O   UNL d   1       0.101 -44.140  11.254  0.00  0.00    -0.616 OA
ENDBRANCH  13  14
ENDBRANCH  10  13
ENDBRANCH   9  10
ENDBRANCH   8   9
ENDBRANCH   7   8
ENDBRANCH   1   7
BRANCH   6  18
ATOM     18  C   UNL d   1      -5.049 -39.440   4.893  0.00  0.00     0.139 C 
BRANCH  18  19
ATOM     19  C   UNL d   1      -6.487 -39.004   4.603  0.00  0.00     0.077 A 
ATOM     20  C   UNL d   1      -7.341 -38.747   5.669  0.00  0.00     0.103 A 
ATOM     21  N   UNL d   1      -8.596 -38.379   5.480  0.00  0.00    -0.229 NA
ATOM     22  C   UNL d   1      -9.111 -38.238   4.251  0.00  0.00     0.143 A 
ATOM     23  C   UNL d   1     -10.571 -37.814   4.073  0.00  0.00     0.074 C 
ATOM     24  N   UNL d   1      -8.317 -38.478   3.126  0.00  0.00    -0.193 NA
ATOM     25  C   UNL d   1      -6.985 -38.864   3.314  0.00  0.00     0.280 A 
ATOM     26  O   UNL d   1      -6.246 -39.065   2.352  0.00  0.00    -0.265 OA
ENDBRANCH  18  19
ENDBRANCH   6  18
TORSDOF 8
