3D2X_D2X_A_85
 OpenBabel10091713573D
Coordinates from PDB:3D2X:A:85 Model:1 without hydrogens
 44 45  0  0  0  0  0  0  0  0999 V2000
   -1.7740  -45.8410   11.7160 O   0  0  0  0  0  0  0  0  0  0  0  0
   -1.1630  -44.3780   11.9850 P   0  0  0  0  0  0  0  0  0  0  0  0
   -0.9890  -44.2610   13.5800 O   0  0  0  0  0  0  0  0  0  0  0  0
    0.1010  -44.1400   11.2540 O   0  0  0  0  0  0  0  0  0  0  0  0
   -2.3230  -43.3430   11.5690 O   0  0  0  0  0  0  0  0  0  0  0  0
   -2.0240  -42.1780   10.4990 P   0  0  1  0  0  0  0  0  0  0  0  0
   -2.7840  -40.8750   11.0620 O   0  0  0  0  0  0  0  0  0  0  0  0
   -0.5750  -41.9600   10.2890 O   0  0  0  0  0  0  0  0  0  0  0  0
   -2.7930  -42.5920    9.1470 O   0  0  0  0  0  0  0  0  0  0  0  0
   -4.1840  -42.9210    9.1700 C   0  0  0  0  0  0  0  0  0  0  0  0
   -5.0270  -41.6780    9.4590 C   0  0  0  0  0  0  0  0  0  0  0  0
   -4.8390  -40.6120    8.3780 C   0  0  0  0  0  0  0  0  0  0  0  0
   -5.1030  -40.6550    7.0140 C   0  0  0  0  0  0  0  0  0  0  0  0
   -5.6870  -41.8900    6.3240 C   0  0  0  0  0  0  0  0  0  0  0  0
   -4.1930  -39.0260    8.6970 S   0  0  0  0  0  0  0  0  0  0  0  0
   -4.3250  -38.5130    7.0360 C   0  0  0  0  0  3  0  0  0  0  0  0
   -4.8280  -39.5360    6.3410 N   0  0  0  0  0  0  0  0  0  0  0  0
   -5.0490  -39.4400    4.8930 C   0  0  0  0  0  0  0  0  0  0  0  0
   -6.4870  -39.0040    4.6030 C   0  0  0  0  0  0  0  0  0  0  0  0
   -7.3410  -38.7470    5.6690 C   0  0  0  0  0  0  0  0  0  0  0  0
   -8.5960  -38.3790    5.4800 N   0  0  0  0  0  0  0  0  0  0  0  0
   -9.1110  -38.2380    4.2510 C   0  0  0  0  0  0  0  0  0  0  0  0
  -10.5710  -37.8140    4.0730 C   0  0  0  0  0  0  0  0  0  0  0  0
   -8.3170  -38.4780    3.1260 N   0  0  0  0  0  0  0  0  0  0  0  0
   -6.9850  -38.8640    3.3140 C   0  0  0  0  0  0  0  0  0  0  0  0
   -6.2460  -39.0650    2.3520 O   0  0  0  0  0  0  0  0  0  0  0  0
   -1.1160  -46.5142   11.9498 H   0  0  0  0  0  0  0  0  0  0  0  0
   -0.2955  -44.8715   13.8752 H   0  0  0  0  0  0  0  0  0  0  0  0
   -2.3578  -40.5814   11.8824 H   0  0  0  0  0  0  0  0  0  0  0  0
   -4.3602  -43.6504    9.9328 H   0  0  0  0  0  0  0  0  0  0  0  0
   -4.4618  -43.3111    8.2132 H   0  0  0  0  0  0  0  0  0  0  0  0
   -4.7340  -41.2708   10.4041 H   0  0  0  0  0  0  0  0  0  0  0  0
   -6.0575  -41.9658    9.4724 H   0  0  0  0  0  0  0  0  0  0  0  0
   -5.8286  -42.6678    7.0450 H   0  0  0  0  0  0  0  0  0  0  0  0
   -5.0128  -42.2263    5.5642 H   0  0  0  0  0  0  0  0  0  0  0  0
   -6.6279  -41.6393    5.8804 H   0  0  0  0  0  0  0  0  0  0  0  0
   -4.0626  -37.5887    6.6593 H   0  0  0  0  0  0  0  0  0  0  0  0
   -4.8727  -40.3955    4.4449 H   0  0  0  0  0  0  0  0  0  0  0  0
   -4.3764  -38.7144    4.4856 H   0  0  0  0  0  0  0  0  0  0  0  0
   -6.9859  -38.8461    6.6329 H   0  0  0  0  0  0  0  0  0  0  0  0
  -11.0217  -37.6753    5.0335 H   0  0  0  0  0  0  0  0  0  0  0  0
  -11.1003  -38.5739    3.5370 H   0  0  0  0  0  0  0  0  0  0  0  0
  -10.6115  -36.8964    3.5241 H   0  0  0  0  0  0  0  0  0  0  0  0
   -6.5763  -38.9721    1.4801 H   0  0  0  0  0  0  0  0  0  0  0  0
  1  2  1  0  0  0  0
  1 27  1  0  0  0  0
  2  3  1  0  0  0  0
  3 28  1  0  0  0  0
  4  2  2  0  0  0  0
  5  2  1  0  0  0  0
  6  5  1  0  0  0  0
  6  7  1  0  0  0  0
  6  8  2  6  0  0  0
  7 29  1  0  0  0  0
  9  6  1  0  0  0  0
  9 10  1  0  0  0  0
 10 11  1  0  0  0  0
 10 30  1  0  0  0  0
 10 31  1  0  0  0  0
 11 32  1  0  0  0  0
 11 33  1  0  0  0  0
 12 11  1  0  0  0  0
 12 15  1  0  0  0  0
 13 12  2  0  0  0  0
 14 13  1  0  0  0  0
 14 34  1  0  0  0  0
 14 35  1  0  0  0  0
 14 36  1  0  0  0  0
 16 15  1  0  0  0  0
 16 37  1  0  0  0  0
 17 13  1  0  0  0  0
 17 16  1  0  0  0  0
 18 17  1  0  0  0  0
 18 38  1  0  0  0  0
 18 39  1  0  0  0  0
 19 18  1  0  0  0  0
 19 20  2  0  0  0  0
 20 40  1  0  0  0  0
 21 20  1  0  0  0  0
 22 21  2  0  0  0  0
 23 22  1  0  0  0  0
 23 41  1  0  0  0  0
 23 42  1  0  0  0  0
 23 43  1  0  0  0  0
 24 22  1  0  0  0  0
 24 25  2  0  0  0  0
 25 19  1  0  0  0  0
 26 25  1  0  0  0  0
 26 44  1  0  0  0  0
M  END
$$$$
