@<TRIPOS>MOLECULE
3D2X_D2X_A_85
 26 27 0 0 0
SMALL
GASTEIGER
****
Coordinates from PDB:3D2X:A:85 Model:1 without hydrogens
@<TRIPOS>ATOM
      1 O          -1.7740  -45.8410   11.7160 O.3     1  UNL1       -0.1143
      2 P          -1.1630  -44.3780   11.9850 P.3     1  UNL1        0.5373
      3 O          -0.9890  -44.2610   13.5800 O.3     1  UNL1       -0.1143
      4 O           0.1010  -44.1400   11.2540 O.2     1  UNL1       -0.2221
      5 O          -2.3230  -43.3430   11.5690 O.3     1  UNL1       -0.2261
      6 P          -2.0240  -42.1780   10.4990 P.3     1  UNL1        0.2230
      7 O          -2.7840  -40.8750   11.0620 O.3     1  UNL1       -0.4370
      8 O          -0.5750  -41.9600   10.2890 O.2     1  UNL1       -0.5169
      9 O          -2.7930  -42.5920    9.1470 O.3     1  UNL1       -0.3134
     10 C          -4.1840  -42.9210    9.1700 C.3     1  UNL1        0.1545
     11 C          -5.0270  -41.6780    9.4590 C.3     1  UNL1        0.0713
     12 C          -4.8390  -40.6120    8.3780 C.ar    1  UNL1        0.0743
     13 C          -5.1030  -40.6550    7.0140 C.ar    1  UNL1        0.2065
     14 C          -5.6870  -41.8900    6.3240 C.3     1  UNL1        0.1080
     15 S          -4.1930  -39.0260    8.6970 S.2     1  UNL1       -0.0110
     16 C          -4.3250  -38.5130    7.0360 C.ar    1  UNL1        0.3279
     17 N          -4.8280  -39.5360    6.3410 N.ar    1  UNL1       -0.1579
     18 C          -5.0490  -39.4400    4.8930 C.3     1  UNL1        0.3566
     19 C          -6.4870  -39.0040    4.6030 C.ar    1  UNL1        0.1323
     20 C          -7.3410  -38.7470    5.6690 C.ar    1  UNL1        0.1076
     21 N          -8.5960  -38.3790    5.4800 N.ar    1  UNL1       -0.2290
     22 C          -9.1110  -38.2380    4.2510 C.ar    1  UNL1        0.1428
     23 C         -10.5710  -37.8140    4.0730 C.3     1  UNL1        0.0738
     24 N          -8.3170  -38.4780    3.1260 N.ar    1  UNL1       -0.1930
     25 C          -6.9850  -38.8640    3.3140 C.ar    1  UNL1        0.2844
     26 O          -6.2460  -39.0650    2.3520 O.3     1  UNL1       -0.2652
@<TRIPOS>BOND
     1     1     2    1
     2     2     3    1
     3     4     2    2
     4     5     2    1
     5     6     5    1
     6     6     7    1
     7     8     6    2
     8     9     6    1
     9     9    10    1
    10    10    11    1
    11    12    11    1
    12    12    15   ar
    13    13    12   ar
    14    14    13    1
    15    16    15   ar
    16    17    13   ar
    17    17    16   ar
    18    18    17    1
    19    19    18    1
    20    19    20   ar
    21    21    20   ar
    22    22    21   ar
    23    23    22    1
    24    24    22   ar
    25    24    25   ar
    26    25    19   ar
    27    26    25    1
