@<TRIPOS>MOLECULE
1F27_BTN_A_33
 32 33 0 0 0
SMALL
GASTEIGER

@<TRIPOS>ATOM
      1 C           0.9443   -0.1002    0.2793 C.2     1  UNL1        0.3047
      2 O           0.2444   -1.0038   -0.1474 O.2     1  UNL1       -0.2510
      3 O           0.4312    0.9432    0.9727 O.3     1  UNL1       -0.4806
      4 C           2.4440    0.0025    0.1170 C.3     1  UNL1        0.0448
      5 C           3.0132   -1.1812   -0.6615 C.3     1  UNL1       -0.0430
      6 C           4.5334   -1.0800   -0.8217 C.3     1  UNL1       -0.0515
      7 C           5.0689   -2.2741   -1.6260 C.3     1  UNL1       -0.0394
      8 C           6.6007   -2.3014   -1.8001 C.3     1  UNL1        0.0255
      9 H           7.0561   -2.2456   -0.8039 H       1  UNL1        0.0431
     10 S           7.1832   -0.8572   -2.7581 S.3     1  UNL1       -0.1536
     11 C           7.6787   -1.7778   -4.2365 C.3     1  UNL1        0.0143
     12 C           7.3058   -3.2294   -4.0239 C.3     1  UNL1        0.0529
     13 H           8.0487   -3.8822   -4.5008 H       1  UNL1        0.0525
     14 N           6.0293   -3.6655   -4.5402 N.am    1  UNL1       -0.2940
     15 C           5.5343   -4.6764   -3.7259 C.2     1  UNL1        0.3002
     16 O           4.6102   -5.4203   -3.9860 O.2     1  UNL1       -0.2528
     17 N           6.2897   -4.6825   -2.5604 N.am    1  UNL1       -0.2937
     18 C           7.1789   -3.5421   -2.5296 C.3     1  UNL1        0.0555
     19 H           8.1412   -3.8373   -2.0971 H       1  UNL1        0.0528
     20 H           1.1022    1.5935    1.2531 H       1  UNL1        0.2951
     21 H           2.8944    0.0383    1.1151 H       1  UNL1        0.0377
     22 H           2.6680    0.9350   -0.4123 H       1  UNL1        0.0377
     23 H           2.5426   -1.2275   -1.6525 H       1  UNL1        0.0270
     24 H           2.7575   -2.1172   -0.1496 H       1  UNL1        0.0270
     25 H           5.0090   -1.0568    0.1668 H       1  UNL1        0.0266
     26 H           4.7748   -0.1373   -1.3233 H       1  UNL1        0.0266
     27 H           4.5684   -2.2913   -2.6019 H       1  UNL1        0.0276
     28 H           4.7638   -3.1849   -1.0955 H       1  UNL1        0.0276
     29 H           8.7659   -1.6796   -4.3231 H       1  UNL1        0.0395
     30 H           7.2231   -1.3511   -5.1345 H       1  UNL1        0.0395
     31 H           5.7480   -3.6618   -5.5127 H       1  UNL1        0.1506
     32 H           6.0156   -5.2656   -1.7798 H       1  UNL1        0.1506
@<TRIPOS>BOND
     1     1     2    2
     2     1     3    1
     3     1     4    1
     4     3    20    1
     5     4     5    1
     6     4    21    1
     7     4    22    1
     8     5     6    1
     9     5    23    1
    10     5    24    1
    11     6     7    1
    12     6    25    1
    13     6    26    1
    14     7     8    1
    15     7    27    1
    16     7    28    1
    17     8     9    1
    18     8    10    1
    19     8    18    1
    20    10    11    1
    21    11    12    1
    22    11    29    1
    23    11    30    1
    24    12    13    1
    25    12    14    1
    26    12    18    1
    27    14    15   am
    28    14    31    1
    29    15    16    2
    30    15    17   am
    31    17    18    1
    32    17    32    1
    33    18    19    1
