REMARK  6 active torsions:
REMARK  status: ('A' for Active; 'I' for Inactive)
REMARK    1  A    between atoms: C_1  and  O_3 
REMARK    2  A    between atoms: C_1  and  C_4 
REMARK    3  A    between atoms: C_4  and  C_5 
REMARK    4  A    between atoms: C_5  and  C_6 
REMARK    5  A    between atoms: C_6  and  C_7 
REMARK    6  A    between atoms: C_7  and  C_8 
ROOT
ATOM      1  C   UNL d   1       6.601  -2.301  -1.800  0.00  0.00     0.072 C 
ATOM      2  S   UNL d   1       7.183  -0.857  -2.758  0.00  0.00    -0.160 SA
ATOM      3  C   UNL d   1       7.679  -1.778  -4.237  0.00  0.00     0.101 C 
ATOM      4  C   UNL d   1       7.306  -3.229  -4.024  0.00  0.00     0.119 C 
ATOM      5  N   UNL d   1       6.029  -3.666  -4.540  0.00  0.00    -0.336 N 
ATOM      6  C   UNL d   1       5.534  -4.676  -3.726  0.00  0.00     0.316 C 
ATOM      7  O   UNL d   1       4.610  -5.420  -3.986  0.00  0.00    -0.247 OA
ATOM      8  N   UNL d   1       6.290  -4.683  -2.560  0.00  0.00    -0.335 N 
ATOM      9  C   UNL d   1       7.179  -3.542  -2.530  0.00  0.00     0.123 C 
ATOM     10  H   UNL d   1       5.748  -3.662  -5.513  0.00  0.00     0.164 HD
ATOM     11  H   UNL d   1       6.016  -5.266  -1.780  0.00  0.00     0.164 HD
ENDROOT
BRANCH   1  12
ATOM     12  C   UNL d   1       5.069  -2.274  -1.626  0.00  0.00     0.017 C 
BRANCH  12  13
ATOM     13  C   UNL d   1       4.533  -1.080  -0.822  0.00  0.00     0.002 C 
BRANCH  13  14
ATOM     14  C   UNL d   1       3.013  -1.181  -0.661  0.00  0.00     0.010 C 
BRANCH  14  15
ATOM     15  C   UNL d   1       2.444   0.003   0.117  0.00  0.00     0.110 C 
BRANCH  15  16
ATOM     16  C   UNL d   1       0.944  -0.100   0.279  0.00  0.00     0.139 C 
ATOM     17  O   UNL d   1       0.244  -1.004  -0.147  0.00  0.00    -0.650 OA
BRANCH  16  18
ATOM     18  O   UNL d   1       0.431   0.943   0.973  0.00  0.00    -0.776 OA
ATOM     19  H   UNL d   1       1.102   1.593   1.253  0.00  0.00     0.167 HD
ENDBRANCH  16  18
ENDBRANCH  15  16
ENDBRANCH  14  15
ENDBRANCH  13  14
ENDBRANCH  12  13
ENDBRANCH   1  12
TORSDOF 6
