@<TRIPOS>MOLECULE
2L94_L94_A_46
 60 60 0 0 0
SMALL
GASTEIGER

@<TRIPOS>ATOM
      1 C           1.0317   -1.5170   -1.5273 C.ar    1  UNL1        0.0610
      2 C           1.6789   -2.0397   -0.4049 C.ar    1  UNL1       -0.0462
      3 C           0.9380   -2.6441    0.5985 C.ar    1  UNL1       -0.0462
      4 C          -0.4582   -2.7308    0.4981 C.ar    1  UNL1        0.0610
      5 C          -1.0945   -2.2785   -0.6697 C.ar    1  UNL1       -0.0462
      6 C          -0.3492   -1.6763   -1.6847 C.ar    1  UNL1       -0.0462
      7 C          -1.2405   -3.1070    1.6875 C.2     1  UNL1        0.2682
      8 N          -0.9139   -2.5214    2.8469 N.2     1  UNL1       -0.2751
      9 H          -0.1511   -1.8509    2.8238 H       1  UNL1        0.3038
     10 C          -1.5562   -2.7765    4.1438 C.3     1  UNL1        0.0892
     11 C          -0.4969   -2.6671    5.2415 C.3     1  UNL1        0.0250
     12 C          -0.4814   -1.2706    5.8624 C.3     1  UNL1       -0.0288
     13 N           0.8594   -0.8957    6.4537 N.4     1  UNL1        0.2310
     14 H           0.6456   -0.1356    7.1130 H       1  UNL1        0.2028
     15 C           1.7990   -0.2859    5.4488 C.3     1  UNL1       -0.0433
     16 C           1.5150   -1.9531    7.2934 C.3     1  UNL1       -0.0433
     17 N          -2.2112   -3.9992    1.5298 N.pl3   1  UNL1       -0.2496
     18 C           1.7923   -0.6215   -2.3913 C.2     1  UNL1        0.2682
     19 N           2.5343   -1.1232   -3.3816 N.2     1  UNL1       -0.2751
     20 H           2.4952   -2.1270   -3.5364 H       1  UNL1        0.3038
     21 C           3.4625   -0.3140   -4.1983 C.3     1  UNL1        0.0892
     22 C           2.7283    0.8513   -4.8487 C.3     1  UNL1        0.0250
     23 C           2.8769    0.8546   -6.3611 C.3     1  UNL1       -0.0288
     24 N           1.9587    1.9097   -6.9440 N.4     1  UNL1        0.2310
     25 H           1.0380    1.7946   -6.4963 H       1  UNL1        0.2028
     26 C           2.4238    3.3124   -6.6482 C.3     1  UNL1       -0.0433
     27 C           1.7490    1.6853   -8.4124 C.3     1  UNL1       -0.0433
     28 N           1.7410    0.6591   -2.0380 N.pl3   1  UNL1       -0.2496
     29 H           2.7500   -1.9037   -0.2775 H       1  UNL1        0.0626
     30 H           1.4543   -3.0279    1.4755 H       1  UNL1        0.0626
     31 H          -2.1786   -2.3137   -0.7628 H       1  UNL1        0.0626
     32 H          -0.8611   -1.2526   -2.5463 H       1  UNL1        0.0626
     33 H          -2.0078   -3.7721    4.1566 H       1  UNL1        0.0746
     34 H          -2.3518   -2.0372    4.2725 H       1  UNL1        0.0746
     35 H          -0.7402   -3.3961    6.0240 H       1  UNL1        0.0355
     36 H           0.4837   -2.9518    4.8422 H       1  UNL1        0.0355
     37 H          -1.2043   -1.2106    6.6829 H       1  UNL1        0.0815
     38 H          -0.7318   -0.4884    5.1364 H       1  UNL1        0.0815
     39 H           2.8244   -0.3979    5.8095 H       1  UNL1        0.0777
     40 H           1.6699   -0.7892    4.4887 H       1  UNL1        0.0777
     41 H           1.5493    0.7758    5.3702 H       1  UNL1        0.0777
     42 H           0.7650   -2.3826    7.9609 H       1  UNL1        0.0777
     43 H           2.3011   -1.4703    7.8807 H       1  UNL1        0.0777
     44 H           1.9450   -2.7121    6.6366 H       1  UNL1        0.0777
     45 H          -2.4991   -4.6021    2.2910 H       1  UNL1        0.2883
     46 H          -2.6749   -4.1073    0.6346 H       1  UNL1        0.2883
     47 H           4.2718    0.0422   -3.5500 H       1  UNL1        0.0746
     48 H           3.9074   -0.9797   -4.9441 H       1  UNL1        0.0746
     49 H           1.6603    0.8129   -4.6135 H       1  UNL1        0.0355
     50 H           3.1126    1.7860   -4.4239 H       1  UNL1        0.0355
     51 H           3.8955    1.0788   -6.6962 H       1  UNL1        0.0815
     52 H           2.5671   -0.1104   -6.7769 H       1  UNL1        0.0815
     53 H           3.5144    3.3151   -6.5856 H       1  UNL1        0.0777
     54 H           1.9782    3.6168   -5.6982 H       1  UNL1        0.0777
     55 H           2.0897    3.9776   -7.4468 H       1  UNL1        0.0777
     56 H           2.7105    1.8221   -8.9143 H       1  UNL1        0.0777
     57 H           1.3725    0.6676   -8.5547 H       1  UNL1        0.0777
     58 H           1.0096    2.4089   -8.7658 H       1  UNL1        0.0777
     59 H           2.4840    1.0488   -1.4692 H       1  UNL1        0.2883
     60 H           0.8360    1.1156   -1.9879 H       1  UNL1        0.2883
@<TRIPOS>BOND
     1     2     1   ar
     2     3     2   ar
     3     4     3   ar
     4     5     4   ar
     5     6     5   ar
     6     6     1   ar
     7     7     4    1
     8     8     7    2
     9     8     9    1
    10    10     8    1
    11    11    10    1
    12    12    11    1
    13    13    12    1
    14    13    14    1
    15    15    13    1
    16    16    13    1
    17    17     7    1
    18    18     1    1
    19    19    18    2
    20    19    20    1
    21    21    19    1
    22    22    21    1
    23    23    22    1
    24    24    23    1
    25    24    25    1
    26    26    24    1
    27    27    24    1
    28    28    18    1
    29     2    29    1
    30     3    30    1
    31     5    31    1
    32     6    32    1
    33    10    33    1
    34    10    34    1
    35    11    35    1
    36    11    36    1
    37    12    37    1
    38    12    38    1
    39    15    39    1
    40    15    40    1
    41    15    41    1
    42    16    42    1
    43    16    43    1
    44    16    44    1
    45    17    45    1
    46    17    46    1
    47    21    47    1
    48    21    48    1
    49    22    49    1
    50    22    50    1
    51    23    51    1
    52    23    52    1
    53    26    53    1
    54    26    54    1
    55    26    55    1
    56    27    56    1
    57    27    57    1
    58    27    58    1
    59    28    59    1
    60    28    60    1
