REMARK  13 active torsions:
REMARK  status: ('A' for Active; 'I' for Inactive)
REMARK    1  A    between atoms: C_18  and  C_1 
REMARK    2  A    between atoms: C_7  and  C_4 
REMARK    3  A    between atoms: N_8  and  C_7 
REMARK    4  A    between atoms: N_17  and  C_7 
REMARK    5  A    between atoms: C_10  and  N_8 
REMARK    6  A    between atoms: C_11  and  C_10 
REMARK    7  A    between atoms: C_12  and  C_11 
REMARK    8  A    between atoms: N_13  and  C_12 
REMARK    9  A    between atoms: N_19  and  C_18 
REMARK   10  A    between atoms: C_21  and  N_19 
REMARK   11  A    between atoms: C_22  and  C_21 
REMARK   12  A    between atoms: C_23  and  C_22 
REMARK   13  A    between atoms: N_24  and  C_23 
ROOT
ATOM      1  C   UNL d   1       1.032  -1.517  -1.527  0.00  0.00     0.007 A 
ATOM      2  C   UNL d   1       1.679  -2.040  -0.405  0.00  0.00     0.016 A 
ATOM      3  C   UNL d   1       0.938  -2.644   0.599  0.00  0.00     0.016 A 
ATOM      4  C   UNL d   1      -0.458  -2.731   0.498  0.00  0.00     0.007 A 
ATOM      5  C   UNL d   1      -1.095  -2.279  -0.670  0.00  0.00     0.016 A 
ATOM      6  C   UNL d   1      -0.349  -1.676  -1.685  0.00  0.00     0.016 A 
ENDROOT
BRANCH   1   7
ATOM      7  C   UNL d   1       1.792  -0.622  -2.391  0.00  0.00     0.104 C 
ATOM      8  N   UNL d   1       1.741   0.659  -2.038  0.00  0.00    -0.385 N 
ATOM      9  H   UNL d   1       2.484   1.049  -1.469  0.00  0.00     0.157 HD
ATOM     10  H   UNL d   1       0.836   1.116  -1.988  0.00  0.00     0.157 HD
BRANCH   7  11
ATOM     11  N   UNL d   1       2.534  -1.123  -3.382  0.00  0.00    -0.376 N 
ATOM     12  H   UNL d   1       2.495  -2.127  -3.536  0.00  0.00     0.161 HD
BRANCH  11  13
ATOM     13  C   UNL d   1       3.462  -0.314  -4.198  0.00  0.00     0.123 C 
BRANCH  13  14
ATOM     14  C   UNL d   1       2.728   0.851  -4.849  0.00  0.00     0.047 C 
BRANCH  14  15
ATOM     15  C   UNL d   1       2.877   0.855  -6.361  0.00  0.00     0.235 C 
BRANCH  15  16
ATOM     16  N   UNL d   1       1.959   1.910  -6.944  0.00  0.00    -0.079 N 
ATOM     17  H   UNL d   1       1.038   1.795  -6.496  0.00  0.00     0.278 HD
ATOM     18  C   UNL d   1       2.424   3.312  -6.648  0.00  0.00     0.269 C 
ATOM     19  C   UNL d   1       1.749   1.685  -8.412  0.00  0.00     0.269 C 
ENDBRANCH  15  16
ENDBRANCH  14  15
ENDBRANCH  13  14
ENDBRANCH  11  13
ENDBRANCH   7  11
ENDBRANCH   1   7
BRANCH   4  20
ATOM     20  C   UNL d   1      -1.240  -3.107   1.688  0.00  0.00     0.104 C 
BRANCH  20  21
ATOM     21  N   UNL d   1      -0.914  -2.521   2.847  0.00  0.00    -0.376 N 
ATOM     22  H   UNL d   1      -0.151  -1.851   2.824  0.00  0.00     0.161 HD
BRANCH  21  23
ATOM     23  C   UNL d   1      -1.556  -2.776   4.144  0.00  0.00     0.123 C 
BRANCH  23  24
ATOM     24  C   UNL d   1      -0.497  -2.667   5.242  0.00  0.00     0.047 C 
BRANCH  24  25
ATOM     25  C   UNL d   1      -0.481  -1.271   5.862  0.00  0.00     0.235 C 
BRANCH  25  26
ATOM     26  N   UNL d   1       0.859  -0.896   6.454  0.00  0.00    -0.079 N 
ATOM     27  H   UNL d   1       0.646  -0.136   7.113  0.00  0.00     0.278 HD
ATOM     28  C   UNL d   1       1.799  -0.286   5.449  0.00  0.00     0.269 C 
ATOM     29  C   UNL d   1       1.515  -1.953   7.293  0.00  0.00     0.269 C 
ENDBRANCH  25  26
ENDBRANCH  24  25
ENDBRANCH  23  24
ENDBRANCH  21  23
ENDBRANCH  20  21
BRANCH  20  30
ATOM     30  N   UNL d   1      -2.211  -3.999   1.530  0.00  0.00    -0.385 N 
ATOM     31  H   UNL d   1      -2.499  -4.602   2.291  0.00  0.00     0.157 HD
ATOM     32  H   UNL d   1      -2.675  -4.107   0.635  0.00  0.00     0.157 HD
ENDBRANCH  20  30
ENDBRANCH   4  20
TORSDOF 13
