2L94_L94_A_46
  1228              3D

 60 60  0  0  0  0  0  0  0  0999 V2000
    1.0317   -1.5170   -1.5273 C   0  0  0  0  0  0  0  0  0  0  0  0
    1.6789   -2.0397   -0.4049 C   0  0  0  0  0  0  0  0  0  0  0  0
    0.9380   -2.6441    0.5985 C   0  0  0  0  0  0  0  0  0  0  0  0
   -0.4582   -2.7308    0.4981 C   0  0  0  0  0  0  0  0  0  0  0  0
   -1.0945   -2.2785   -0.6697 C   0  0  0  0  0  0  0  0  0  0  0  0
   -0.3492   -1.6763   -1.6847 C   0  0  0  0  0  0  0  0  0  0  0  0
   -1.2405   -3.1070    1.6875 C   0  0  0  0  0  0  0  0  0  0  0  0
   -0.9139   -2.5214    2.8469 N   0  3  0  0  0  0  0  0  0  0  0  0
   -0.1511   -1.8509    2.8238 H   0  0  0  0  0  0  0  0  0  0  0  0
   -1.5562   -2.7765    4.1438 C   0  0  0  0  0  0  0  0  0  0  0  0
   -0.4969   -2.6671    5.2415 C   0  0  0  0  0  0  0  0  0  0  0  0
   -0.4814   -1.2706    5.8624 C   0  0  0  0  0  0  0  0  0  0  0  0
    0.8594   -0.8957    6.4537 N   0  3  0  0  0  0  0  0  0  0  0  0
    0.6456   -0.1356    7.1130 H   0  0  0  0  0  0  0  0  0  0  0  0
    1.7990   -0.2859    5.4488 C   0  0  0  0  0  0  0  0  0  0  0  0
    1.5150   -1.9531    7.2934 C   0  0  0  0  0  0  0  0  0  0  0  0
   -2.2112   -3.9992    1.5298 N   0  0  0  0  0  0  0  0  0  0  0  0
    1.7923   -0.6215   -2.3913 C   0  0  0  0  0  0  0  0  0  0  0  0
    2.5343   -1.1232   -3.3816 N   0  3  0  0  0  0  0  0  0  0  0  0
    2.4952   -2.1270   -3.5364 H   0  0  0  0  0  0  0  0  0  0  0  0
    3.4625   -0.3140   -4.1983 C   0  0  0  0  0  0  0  0  0  0  0  0
    2.7283    0.8513   -4.8487 C   0  0  0  0  0  0  0  0  0  0  0  0
    2.8769    0.8546   -6.3611 C   0  0  0  0  0  0  0  0  0  0  0  0
    1.9587    1.9097   -6.9440 N   0  3  0  0  0  0  0  0  0  0  0  0
    1.0380    1.7946   -6.4963 H   0  0  0  0  0  0  0  0  0  0  0  0
    2.4238    3.3124   -6.6482 C   0  0  0  0  0  0  0  0  0  0  0  0
    1.7490    1.6853   -8.4124 C   0  0  0  0  0  0  0  0  0  0  0  0
    1.7410    0.6591   -2.0380 N   0  0  0  0  0  0  0  0  0  0  0  0
    2.7500   -1.9037   -0.2775 H   0  0  0  0  0  0  0  0  0  0  0  0
    1.4543   -3.0279    1.4755 H   0  0  0  0  0  0  0  0  0  0  0  0
   -2.1786   -2.3137   -0.7628 H   0  0  0  0  0  0  0  0  0  0  0  0
   -0.8611   -1.2526   -2.5463 H   0  0  0  0  0  0  0  0  0  0  0  0
   -2.0078   -3.7721    4.1566 H   0  0  0  0  0  0  0  0  0  0  0  0
   -2.3518   -2.0372    4.2725 H   0  0  0  0  0  0  0  0  0  0  0  0
   -0.7402   -3.3961    6.0240 H   0  0  0  0  0  0  0  0  0  0  0  0
    0.4837   -2.9518    4.8422 H   0  0  0  0  0  0  0  0  0  0  0  0
   -1.2043   -1.2106    6.6829 H   0  0  0  0  0  0  0  0  0  0  0  0
   -0.7318   -0.4884    5.1364 H   0  0  0  0  0  0  0  0  0  0  0  0
    2.8244   -0.3979    5.8095 H   0  0  0  0  0  0  0  0  0  0  0  0
    1.6699   -0.7892    4.4887 H   0  0  0  0  0  0  0  0  0  0  0  0
    1.5493    0.7758    5.3702 H   0  0  0  0  0  0  0  0  0  0  0  0
    0.7650   -2.3826    7.9609 H   0  0  0  0  0  0  0  0  0  0  0  0
    2.3011   -1.4703    7.8807 H   0  0  0  0  0  0  0  0  0  0  0  0
    1.9450   -2.7121    6.6366 H   0  0  0  0  0  0  0  0  0  0  0  0
   -2.4991   -4.6021    2.2910 H   0  0  0  0  0  0  0  0  0  0  0  0
   -2.6749   -4.1073    0.6346 H   0  0  0  0  0  0  0  0  0  0  0  0
    4.2718    0.0422   -3.5500 H   0  0  0  0  0  0  0  0  0  0  0  0
    3.9074   -0.9797   -4.9441 H   0  0  0  0  0  0  0  0  0  0  0  0
    1.6603    0.8129   -4.6135 H   0  0  0  0  0  0  0  0  0  0  0  0
    3.1126    1.7860   -4.4239 H   0  0  0  0  0  0  0  0  0  0  0  0
    3.8955    1.0788   -6.6962 H   0  0  0  0  0  0  0  0  0  0  0  0
    2.5671   -0.1104   -6.7769 H   0  0  0  0  0  0  0  0  0  0  0  0
    3.5144    3.3151   -6.5856 H   0  0  0  0  0  0  0  0  0  0  0  0
    1.9782    3.6168   -5.6982 H   0  0  0  0  0  0  0  0  0  0  0  0
    2.0897    3.9776   -7.4468 H   0  0  0  0  0  0  0  0  0  0  0  0
    2.7105    1.8221   -8.9143 H   0  0  0  0  0  0  0  0  0  0  0  0
    1.3725    0.6676   -8.5547 H   0  0  0  0  0  0  0  0  0  0  0  0
    1.0096    2.4089   -8.7658 H   0  0  0  0  0  0  0  0  0  0  0  0
    2.4840    1.0488   -1.4692 H   0  0  0  0  0  0  0  0  0  0  0  0
    0.8360    1.1156   -1.9879 H   0  0  0  0  0  0  0  0  0  0  0  0
  2  1  2  0  0  0  0
  3  2  1  0  0  0  0
  4  3  2  0  0  0  0
  5  4  1  0  0  0  0
  6  5  2  0  0  0  0
  6  1  1  0  0  0  0
  7  4  1  0  0  0  0
  8  7  2  0  0  0  0
  8  9  1  0  0  0  0
 10  8  1  0  0  0  0
 11 10  1  0  0  0  0
 12 11  1  0  0  0  0
 13 12  1  0  0  0  0
 13 14  1  0  0  0  0
 15 13  1  0  0  0  0
 16 13  1  0  0  0  0
 17  7  1  0  0  0  0
 18  1  1  0  0  0  0
 19 18  2  0  0  0  0
 19 20  1  0  0  0  0
 21 19  1  0  0  0  0
 22 21  1  0  0  0  0
 23 22  1  0  0  0  0
 24 23  1  0  0  0  0
 24 25  1  0  0  0  0
 26 24  1  0  0  0  0
 27 24  1  0  0  0  0
 28 18  1  0  0  0  0
  2 29  1  0  0  0  0
  3 30  1  0  0  0  0
  5 31  1  0  0  0  0
  6 32  1  0  0  0  0
 10 33  1  0  0  0  0
 10 34  1  0  0  0  0
 11 35  1  0  0  0  0
 11 36  1  0  0  0  0
 12 37  1  0  0  0  0
 12 38  1  0  0  0  0
 15 39  1  0  0  0  0
 15 40  1  0  0  0  0
 15 41  1  0  0  0  0
 16 42  1  0  0  0  0
 16 43  1  0  0  0  0
 16 44  1  0  0  0  0
 17 45  1  0  0  0  0
 17 46  1  0  0  0  0
 21 47  1  0  0  0  0
 21 48  1  0  0  0  0
 22 49  1  0  0  0  0
 22 50  1  0  0  0  0
 23 51  1  0  0  0  0
 23 52  1  0  0  0  0
 26 53  1  0  0  0  0
 26 54  1  0  0  0  0
 26 55  1  0  0  0  0
 27 56  1  0  0  0  0
 27 57  1  0  0  0  0
 27 58  1  0  0  0  0
 28 59  1  0  0  0  0
 28 60  1  0  0  0  0
M  CHG  4   8   1  13   1  19   1  24   1
M  END
>  <energy>
99.753613637415512

$$$$
