3GLP_GOL_A_10
 OpenBabel10091713573D
Coordinates from PDB:3GLP:A:10 Model:1 without hydrogens
  6  5  0  0  0  0  0  0  0  0999 V2000
   28.5240    0.8750   26.9430 C   0  0  0  0  0  0  0  0  0  0  0  0
   29.4720    1.5480   27.7200 O   0  0  0  0  0  0  0  0  0  0  0  0
   27.2290    0.5620   27.6960 C   0  0  0  0  0  0  0  0  0  0  0  0
   27.5880   -0.6550   28.3170 O   0  0  0  0  0  0  0  0  0  0  0  0
   26.1450    0.4330   26.6240 C   0  0  0  0  0  0  0  0  0  0  0  0
   24.9070    0.2230   27.1590 O   0  0  0  0  0  0  0  0  0  0  0  0
  1  2  1  0  0  0  0
  1  3  1  0  0  0  0
  3  4  1  0  0  0  0
  3  5  1  0  0  0  0
  5  6  1  0  0  0  0
A    1
C1
A    2
O1
A    3
C2
A    4
O2
A    5
C3
A    6
O3
M  END
>  <InstanceId>
3GLP_GOL_A_10

>  <ChemCompId>
GOL

>  <PdbId>
3GLP

>  <ChainId>
A

>  <ResidueNumber>
10

>  <InsertionCode>


>  <Model>
1

>  <AltIds>


>  <MissingHeavyAtoms>
0

>  <ObservedFormula>
C3 O3

>  <Name>
GLYCEROL

>  <SystematicName>
propane-1,2,3-triol

>  <Synonyms>
GLYCERIN; PROPANE-1,2,3-TRIOL

>  <Type>
NON-POLYMER

>  <Formula>
C3 H8 O3

>  <MolecularWeight>
92.094

>  <ModifiedDate>
2011-06-04

>  <Parent>


>  <OneLetterCode>


>  <SubcomponentList>


>  <AmbiguousFlag>
N

>  <InChI>
InChI=1S/C3H8O3/c4-1-3(6)2-5/h3-6H,1-2H2

>  <InChIKey>
PEDCQBHIVMGVHV-UHFFFAOYSA-N

>  <SMILES>
C(C(CO)O)O

$$$$
