3GLP_GOL_A_10
 OpenBabel10091713573D
Coordinates from PDB:3GLP:A:10 Model:1 without hydrogens
 14 13  0  0  0  0  0  0  0  0999 V2000
   28.5240    0.8750   26.9430 C   0  0  0  0  0  0  0  0  0  0  0  0
   29.4720    1.5480   27.7200 O   0  0  0  0  0  0  0  0  0  0  0  0
   27.2290    0.5620   27.6960 C   0  0  0  0  0  0  0  0  0  0  0  0
   27.5880   -0.6550   28.3170 O   0  0  0  0  0  0  0  0  0  0  0  0
   26.1450    0.4330   26.6240 C   0  0  0  0  0  0  0  0  0  0  0  0
   24.9070    0.2230   27.1590 O   0  0  0  0  0  0  0  0  0  0  0  0
   28.9527   -0.0466   26.6087 H   0  0  0  0  0  0  0  0  0  0  0  0
   28.2671    1.5214   26.1300 H   0  0  0  0  0  0  0  0  0  0  0  0
   29.7301    0.9900   28.4703 H   0  0  0  0  0  0  0  0  0  0  0  0
   26.8570    1.2658   28.4110 H   0  0  0  0  0  0  0  0  0  0  0  0
   27.9211   -1.2734   27.6480 H   0  0  0  0  0  0  0  0  0  0  0  0
   26.3883   -0.3913   25.9866 H   0  0  0  0  0  0  0  0  0  0  0  0
   26.1134    1.3535   26.0794 H   0  0  0  0  0  0  0  0  0  0  0  0
   24.9078   -0.6078   27.6597 H   0  0  0  0  0  0  0  0  0  0  0  0
  1  2  1  0  0  0  0
  1  3  1  0  0  0  0
  1  7  1  0  0  0  0
  1  8  1  0  0  0  0
  2  9  1  0  0  0  0
  3  4  1  0  0  0  0
  3  5  1  0  0  0  0
  3 10  1  0  0  0  0
  4 11  1  0  0  0  0
  5  6  1  0  0  0  0
  5 12  1  0  0  0  0
  5 13  1  0  0  0  0
  6 14  1  0  0  0  0
M  END
$$$$
