REMARK  2 active torsions:
REMARK  status: ('A' for Active; 'I' for Inactive)
REMARK    1  A    between atoms: C_1  and  C_3 
REMARK    2  A    between atoms: C_3  and  C_5 
ROOT
ATOM      1  C   UNL d   1      27.229   0.562  27.696  0.00  0.00     0.218 C 
ATOM      2  O   UNL d   1      27.588  -0.655  28.317  0.00  0.00    -0.218 OA
ENDROOT
BRANCH   1   3
ATOM      3  C   UNL d   1      28.524   0.875  26.943  0.00  0.00     0.218 C 
ATOM      4  O   UNL d   1      29.472   1.548  27.720  0.00  0.00    -0.218 OA
ENDBRANCH   1   3
BRANCH   1   5
ATOM      5  C   UNL d   1      26.145   0.433  26.624  0.00  0.00     0.218 C 
ATOM      6  O   UNL d   1      24.907   0.223  27.159  0.00  0.00    -0.218 OA
ENDBRANCH   1   5
TORSDOF 2
