@<TRIPOS>MOLECULE
3GLP_GOL_A_10
 6 5 0 0 0
SMALL
GASTEIGER
****
Coordinates from PDB:3GLP:A:10 Model:1 without hydrogens
@<TRIPOS>ATOM
      1 C          28.5240    0.8750   26.9430 C.3     1  UNL1        0.2175
      2 O          29.4720    1.5480   27.7200 O.3     1  UNL1       -0.2175
      3 C          27.2290    0.5620   27.6960 C.3     1  UNL1        0.2175
      4 O          27.5880   -0.6550   28.3170 O.3     1  UNL1       -0.2175
      5 C          26.1450    0.4330   26.6240 C.3     1  UNL1        0.2175
      6 O          24.9070    0.2230   27.1590 O.3     1  UNL1       -0.2175
@<TRIPOS>BOND
     1     1     2    1
     2     1     3    1
     3     3     4    1
     4     3     5    1
     5     5     6    1
