@<TRIPOS>MOLECULE
ligand.pdb
 51 53 0 0 0
SMALL
GASTEIGER

@<TRIPOS>ATOM
      1 N          -1.5476    3.5343    3.7424 N.3     1  UNL1       -0.3184
      2 CA         -1.2142    2.1744    3.3272 C.3     1  UNL1        0.1039
      3 HA         -2.0463    1.7786    2.7290 H       1  UNL1        0.0574
      4 C          -1.0763    1.3352    4.5871 C.2     1  UNL1        0.3217
      5 O          -1.7925    0.3755    4.8577 O.2     1  UNL1       -0.2493
      6 OXT        -0.0330    1.7530    5.3538 O.3     1  UNL1       -0.4795
      7 C           0.0659    2.1611    2.4660 C.3     1  UNL1       -0.0199
      8 C           0.5325    0.7360    2.1813 C.3     1  UNL1       -0.0230
      9 S           1.7758    0.5916    0.8761 S.3     1  UNL1       -0.2533
     10 H           1.7072   -0.6825    0.4597 H       1  UNL1        0.0821
     11 C           3.4172    0.8540    1.5514 C.3     1  UNL1       -0.0366
     12 C           1.4733    1.6473   -0.5615 C.3     1  UNL1        0.0041
     13 C           1.9429    0.9259   -1.8170 C.3     1  UNL1        0.0970
     14 H           2.9263    0.4900   -1.6277 H       1  UNL1        0.0631
     15 O           1.0371   -0.1652   -2.0696 O.3     1  UNL1       -0.3472
     16 C           0.6214   -0.1204   -3.4415 C.3     1  UNL1        0.1666
     17 H           1.2798   -0.7932   -4.0112 H       1  UNL1        0.0866
     18 C           0.7533    1.3359   -3.8547 C.3     1  UNL1        0.1285
     19 H          -0.1418    1.8928   -3.5486 H       1  UNL1        0.0665
     20 C           1.9526    1.8159   -3.0607 C.3     1  UNL1        0.1121
     21 H           1.8809    2.8834   -2.8407 H       1  UNL1        0.0647
     22 O           3.1662    1.6150   -3.7739 O.3     1  UNL1       -0.3865
     23 O           0.9204    1.4967   -5.2476 O.3     1  UNL1       -0.3847
     24 N          -0.7550   -0.6050   -3.5755 N.ar    1  UNL1       -0.2855
     25 C          -1.1535   -1.2974   -4.7056 C.ar    1  UNL1        0.1004
     26 N          -2.2991   -1.9197   -4.5232 N.ar    1  UNL1       -0.2306
     27 C          -2.5229   -1.8515   -3.1724 C.ar    1  UNL1        0.1473
     28 C          -3.5618   -2.3570   -2.3696 C.ar    1  UNL1        0.1472
     29 N          -4.5858   -3.1593   -2.8926 N.pl3   1  UNL1       -0.3413
     30 N          -3.4561   -2.1582   -1.0258 N.ar    1  UNL1       -0.2188
     31 C          -2.5002   -1.3191   -0.5711 C.ar    1  UNL1        0.1205
     32 N          -1.6651   -0.5580   -1.3080 N.ar    1  UNL1       -0.2159
     33 C          -1.5509   -1.0754   -2.5456 C.ar    1  UNL1        0.1674
     34 H1         -2.2889    3.5155    4.4436 H       1  UNL1        0.1190
     35 H2         -1.9157    4.0658    2.9538 H       1  UNL1        0.1190
     36 HXT        -0.0331    1.3424    6.2430 H       1  UNL1        0.2951
     37 H          -0.1378    2.6806    1.5250 H       1  UNL1        0.0293
     38 H           0.8603    2.7234    2.9717 H       1  UNL1        0.0293
     39 H           0.9748    0.3166    3.0951 H       1  UNL1        0.0360
     40 H          -0.3164    0.1080    1.8961 H       1  UNL1        0.0360
     41 H           3.4548    0.4945    2.5818 H       1  UNL1        0.0324
     42 H           4.1511    0.2940    0.9667 H       1  UNL1        0.0324
     43 H           3.6830    1.9111    1.5377 H       1  UNL1        0.0324
     44 H           0.4073    1.8779   -0.6289 H       1  UNL1        0.0385
     45 H           2.0167    2.5889   -0.4338 H       1  UNL1        0.0385
     46 H           3.2657    0.6665   -3.9607 H       1  UNL1        0.2100
     47 H           1.1637    2.4228   -5.4160 H       1  UNL1        0.2101
     48 H          -0.7037   -1.0943   -5.6719 H       1  UNL1        0.1030
     49 H          -4.8093   -2.9215   -3.8558 H       1  UNL1        0.1438
     50 H          -4.3371   -4.1431   -2.8243 H       1  UNL1        0.1438
     51 H          -2.5158   -1.1281    0.4929 H       1  UNL1        0.1048
@<TRIPOS>BOND
     1     2     1    1
     2     2     3    1
     3     4     2    1
     4     5     4    2
     5     6     4    1
     6     7     2    1
     7     8     7    1
     8     9     8    1
     9     9    10    1
    10    11     9    1
    11    12     9    1
    12    13    12    1
    13    13    14    1
    14    15    13    1
    15    16    15    1
    16    16    17    1
    17    18    16    1
    18    18    19    1
    19    20    18    1
    20    20    21    1
    21    20    13    1
    22    22    20    1
    23    23    18    1
    24    24    16    1
    25    25    24   ar
    26    26    25   ar
    27    27    26   ar
    28    28    27   ar
    29    29    28    1
    30    30    28   ar
    31    31    30   ar
    32    32    31   ar
    33    33    32   ar
    34    33    24   ar
    35    33    27   ar
    36     1    34    1
    37     1    35    1
    38     6    36    1
    39     7    37    1
    40     7    38    1
    41     8    39    1
    42     8    40    1
    43    11    41    1
    44    11    42    1
    45    11    43    1
    46    12    44    1
    47    12    45    1
    48    22    46    1
    49    23    47    1
    50    25    48    1
    51    29    49    1
    52    29    50    1
    53    31    51    1
