REMARK  3 active torsions:
REMARK  status: ('A' for Active; 'I' for Inactive)
REMARK    1  A    between atoms: N_15  and  C_3 
REMARK    2  A    between atoms: C_10  and  C_9 
REMARK    3  A    between atoms: N_11  and  C_10 
ROOT
ATOM      1  N   UNL d   1       1.990   0.494  -0.869  0.00  0.00    -0.298 N 
ATOM      2  H   UNL d   1       2.618   0.935  -1.532  0.00  0.00     0.171 HD
ATOM      3  C   UNL d   1       2.547   0.036   0.344  0.00  0.00     0.181 A 
ATOM      4  N   UNL d   1       1.831  -0.556   1.272  0.00  0.00    -0.201 NA
ATOM      5  C   UNL d   1       0.508  -0.606   0.985  0.00  0.00     0.147 A 
ATOM      6  C   UNL d   1      -0.141  -0.188  -0.159  0.00  0.00     0.087 A 
ATOM      7  C   UNL d   1       0.635   0.432  -1.210  0.00  0.00     0.262 A 
ATOM      8  O   UNL d   1       0.157   0.864  -2.253  0.00  0.00    -0.267 OA
ATOM      9  C   UNL d   1      -1.522  -0.470  -0.010  0.00  0.00     0.004 A 
ATOM     10  C   UNL d   1      -1.660  -1.074   1.231  0.00  0.00     0.099 A 
ATOM     11  N   UNL d   1      -0.423  -1.157   1.821  0.00  0.00    -0.349 N 
ATOM     12  H   UNL d   1      -0.241  -1.555   2.734  0.00  0.00     0.167 HD
ENDROOT
BRANCH   9  13
ATOM     13  C   UNL d   1      -2.604  -0.191  -0.991  0.00  0.00     0.307 C 
BRANCH  13  14
ATOM     14  N   UNL d   1      -3.236  -1.439  -1.406  0.00  0.00     0.082 N 
ATOM     15  H   UNL d   1      -3.333  -1.446  -2.420  0.00  0.00     0.313 HD
ATOM     16  H   UNL d   1      -2.648  -2.244  -1.185  0.00  0.00     0.313 HD
ENDBRANCH  13  14
ENDBRANCH   9  13
BRANCH   3  17
ATOM     17  N   UNL d   1       3.906   0.226   0.478  0.00  0.00    -0.272 NA
ATOM     18  H   UNL d   1       4.263   1.002  -0.073  0.00  0.00     0.127 HD
ATOM     19  H   UNL d   1       4.229   0.334   1.439  0.00  0.00     0.127 HD
ENDBRANCH   3  17
TORSDOF 3
