@<TRIPOS>MOLECULE
4JF2_PRF_A_101
 22 23 0 0 0
SMALL
GASTEIGER

@<TRIPOS>ATOM
      1 N           1.9902    0.4937   -0.8686 N.ar    1  UNL1       -0.2947
      2 H           2.6184    0.9347   -1.5324 H       1  UNL1        0.1716
      3 C           2.5466    0.0356    0.3445 C.ar    1  UNL1        0.1949
      4 N           1.8306   -0.5557    1.2716 N.ar    1  UNL1       -0.1982
      5 C           0.5078   -0.6059    0.9851 C.ar    1  UNL1        0.1472
      6 C          -0.1405   -0.1880   -0.1594 C.ar    1  UNL1        0.0874
      7 C           0.6354    0.4321   -1.2105 C.ar    1  UNL1        0.2622
      8 O           0.1565    0.8639   -2.2533 O.2     1  UNL1       -0.2670
      9 C          -1.5225   -0.4700   -0.0097 C.ar    1  UNL1       -0.0020
     10 C          -2.6043   -0.1911   -0.9909 C.3     1  UNL1        0.0208
     11 N          -3.2360   -1.4394   -1.4058 N.3     1  UNL1       -0.3260
     12 C          -1.6596   -1.0744    1.2313 C.ar    1  UNL1        0.0087
     13 N          -0.4233   -1.1574    1.8215 N.ar    1  UNL1       -0.3453
     14 H          -0.2410   -1.5552    2.7339 H       1  UNL1        0.1668
     15 N           3.9060    0.2255    0.4781 N.pl3   1  UNL1       -0.3289
     16 H          -2.2146    0.3211   -1.8760 H       1  UNL1        0.0472
     17 H          -3.3438    0.4807   -0.5410 H       1  UNL1        0.0472
     18 H          -3.3334   -1.4463   -2.4201 H       1  UNL1        0.1185
     19 H          -2.6485   -2.2438   -1.1847 H       1  UNL1        0.1185
     20 H          -2.5295   -1.4751    1.7345 H       1  UNL1        0.0811
     21 H           4.2629    1.0016   -0.0735 H       1  UNL1        0.1451
     22 H           4.2285    0.3342    1.4386 H       1  UNL1        0.1451
@<TRIPOS>BOND
     1     1     2    1
     2     3     1   ar
     3     4     3   ar
     4     5     4   ar
     5     6     5   ar
     6     7     6   ar
     7     7     1   ar
     8     8     7    2
     9     9     6   ar
    10    10     9    1
    11    11    10    1
    12    12     9   ar
    13    13    12   ar
    14    13    14    1
    15    13     5   ar
    16    15     3    1
    17    10    16    1
    18    10    17    1
    19    11    18    1
    20    11    19    1
    21    12    20    1
    22    15    21    1
    23    15    22    1
