@<TRIPOS>MOLECULE
ligand.pdb
 17 16 0 0 0
SMALL
GASTEIGER

@<TRIPOS>ATOM
      1 P          -2.5544    0.1536   -0.5924 P.3     1  UNL1        0.3187
      2 H          -2.3270   -0.6703   -1.7152 H       1  UNL1        0.1593
      3 O          -2.7998    1.6360   -0.6966 O.2     1  UNL1       -0.2620
      4 O          -3.7602   -0.6040    0.1859 O.3     1  UNL1       -0.3259
      5 O          -1.3088   -0.2006    0.3915 O.3     1  UNL1       -0.3099
      6 C          -0.0304    0.3364    0.0756 C.3     1  UNL1        0.0588
      7 C           0.5896   -0.4680   -1.0603 C.3     1  UNL1       -0.0057
      8 C           2.0232   -0.0330   -1.3234 C.3     1  UNL1        0.0463
      9 O           2.5134   -0.7280   -2.4634 O.3     1  UNL1       -0.3949
     10 H          -3.6915   -0.7273    1.1562 H       1  UNL1        0.2195
     11 H           0.5891    0.2847    0.9777 H       1  UNL1        0.0565
     12 H          -0.1379    1.3915   -0.2000 H       1  UNL1        0.0565
     13 H           0.5663   -1.5355   -0.8130 H       1  UNL1        0.0310
     14 H          -0.0016   -0.3291   -1.9723 H       1  UNL1        0.0310
     15 H           2.0751    1.0404   -1.5356 H       1  UNL1        0.0558
     16 H           2.6687   -0.2546   -0.4641 H       1  UNL1        0.0558
     17 H           2.9091   -1.5582   -2.1473 H       1  UNL1        0.2094
@<TRIPOS>BOND
     1     1     2    1
     2     3     1    2
     3     4     1    1
     4     5     1    1
     5     6     5    1
     6     7     6    1
     7     8     7    1
     8     9     8    1
     9     4    10    1
    10     6    11    1
    11     6    12    1
    12     7    13    1
    13     7    14    1
    14     8    15    1
    15     8    16    1
    16     9    17    1
