REMARK  6 active torsions:
REMARK  status: ('A' for Active; 'I' for Inactive)
REMARK    1  A    between atoms: O_4  and  P_1 
REMARK    2  A    between atoms: O_5  and  P_1 
REMARK    3  A    between atoms: C_6  and  O_5 
REMARK    4  A    between atoms: C_7  and  C_6 
REMARK    5  A    between atoms: C_8  and  C_7 
REMARK    6  A    between atoms: O_9  and  C_8 
ROOT
ATOM      1  O   UNL d   1      -1.309  -0.201   0.392  0.00  0.00    -0.321 OA
ENDROOT
BRANCH   1   2
ATOM      2  P   UNL d   1      -2.554   0.154  -0.592  0.00  0.00     0.228 P 
ATOM      3  H   UNL d   1      -2.327  -0.670  -1.715  0.00  0.00     0.152 HD
ATOM      4  O   UNL d   1      -2.800   1.636  -0.697  0.00  0.00    -0.655 OA
BRANCH   2   5
ATOM      5  O   UNL d   1      -3.760  -0.604   0.186  0.00  0.00    -0.331 OA
ATOM      6  H   UNL d   1      -3.692  -0.727   1.156  0.00  0.00     0.220 HD
ENDBRANCH   2   5
ENDBRANCH   1   2
BRANCH   1   7
ATOM      7  C   UNL d   1      -0.030   0.336   0.076  0.00  0.00     0.180 C 
BRANCH   7   8
ATOM      8  C   UNL d   1       0.590  -0.468  -1.060  0.00  0.00     0.053 C 
BRANCH   8   9
ATOM      9  C   UNL d   1       2.023  -0.033  -1.323  0.00  0.00     0.166 C 
BRANCH   9  10
ATOM     10  O   UNL d   1       2.513  -0.728  -2.463  0.00  0.00    -0.401 OA
ATOM     11  H   UNL d   1       2.909  -1.558  -2.147  0.00  0.00     0.209 HD
ENDBRANCH   9  10
ENDBRANCH   8   9
ENDBRANCH   7   8
ENDBRANCH   1   7
TORSDOF 6
