3C5D_LIV_B_24
 OpenBabel03221817293D

107111  0  0  1  0  0  0  0  0999 V2000
    3.7353  -14.2365    4.3906 C   0  0  2  0  0  0  0  0  0  0  0  0
    4.1920  -15.1508    3.9919 H   0  0  0  0  0  0  0  0  0  0  0  0
    2.3272  -14.5469    4.4216 O   0  0  0  0  0  0  0  0  0  0  0  0
    1.4078  -13.5433    4.9212 C   0  0  1  0  0  0  0  0  0  0  0  0
    1.6403  -13.3498    5.9668 H   0  0  0  0  0  0  0  0  0  0  0  0
    1.4178  -12.2086    4.1121 C   0  0  1  0  0  0  0  0  0  0  0  0
    2.4421  -11.8517    4.0399 H   0  0  0  0  0  0  0  0  0  0  0  0
    0.8494  -12.4494    2.6836 C   0  0  2  0  0  0  0  0  0  0  0  0
    0.8613  -11.5202    2.1086 H   0  0  0  0  0  0  0  0  0  0  0  0
   -0.6039  -12.9797    2.7295 C   0  0  2  0  0  0  0  0  0  0  0  0
   -0.9039  -13.2398    1.7077 H   0  0  0  0  0  0  0  0  0  0  0  0
   -1.5918  -12.0052    3.2191 N   0  0  0  0  0  0  0  0  0  0  0  0
   -0.6559  -14.2699    3.5553 C   0  0  0  0  0  0  0  0  0  0  0  0
   -0.0248  -14.1720    4.9571 C   0  0  2  0  0  0  0  0  0  0  0  0
    0.0615  -15.2014    5.3281 H   0  0  0  0  0  0  0  0  0  0  0  0
   -0.9167  -13.4743    5.9060 N   0  0  0  0  0  0  0  0  0  0  0  0
    1.6376  -13.3468    1.8916 O   0  0  0  0  0  0  0  0  0  0  0  0
    0.7038  -11.1777    4.8332 O   0  0  0  0  0  0  0  0  0  0  0  0
    0.8233   -9.8932    4.2123 C   0  0  1  0  0  0  0  0  0  0  0  0
    0.4354   -9.9367    3.1913 H   0  0  0  0  0  0  0  0  0  0  0  0
    0.0289   -8.8318    4.9653 C   0  0  2  0  0  0  0  0  0  0  0  0
    0.2348   -8.8963    6.0409 H   0  0  0  0  0  0  0  0  0  0  0  0
   -1.3768   -8.9220    4.7768 O   0  0  0  0  0  0  0  0  0  0  0  0
    0.6344   -7.5671    4.3625 C   0  0  1  0  0  0  0  0  0  0  0  0
    0.4275   -6.7168    5.0093 H   0  0  0  0  0  0  0  0  0  0  0  0
    2.1166   -7.9683    4.2789 C   0  0  2  0  0  0  0  0  0  0  0  0
    2.6244   -7.5963    3.3862 H   0  0  0  0  0  0  0  0  0  0  0  0
    2.1731   -9.4064    4.1778 O   0  0  0  0  0  0  0  0  0  0  0  0
    2.9127   -7.5448    5.5133 C   0  0  0  0  0  0  0  0  0  0  0  0
    4.3008   -7.8131    5.3080 O   0  0  0  0  0  0  0  0  0  0  0  0
    0.0448   -7.3380    3.0575 O   0  0  0  0  0  0  0  0  0  0  0  0
    0.5672   -6.1945    2.3512 C   0  0  2  0  0  0  0  0  0  0  0  0
    1.6086   -6.4170    2.1090 H   0  0  0  0  0  0  0  0  0  0  0  0
    0.4715   -4.8701    3.1624 C   0  0  1  0  0  0  0  0  0  0  0  0
    1.0485   -4.9676    4.0856 H   0  0  0  0  0  0  0  0  0  0  0  0
    1.1186   -3.7439    2.3333 C   0  0  2  0  0  0  0  0  0  0  0  0
    0.9921   -2.8030    2.8744 H   0  0  0  0  0  0  0  0  0  0  0  0
    0.5081   -3.6425    0.9211 C   0  0  2  0  0  0  0  0  0  0  0  0
    1.1044   -2.9579    0.3046 H   0  0  0  0  0  0  0  0  0  0  0  0
   -0.8614   -3.1993    0.9224 O   0  0  0  0  0  0  0  0  0  0  0  0
   -1.0872   -1.9078    1.4956 C   0  0  2  0  0  0  0  0  0  0  0  0
   -0.8960   -1.9852    2.5665 H   0  0  0  0  0  0  0  0  0  0  0  0
   -2.5791   -1.5846    1.2879 C   0  0  2  0  0  0  0  0  0  0  0  0
   -2.8332   -1.6475    0.2229 H   0  0  0  0  0  0  0  0  0  0  0  0
   -2.9033   -0.1870    1.8185 C   0  0  2  0  0  0  0  0  0  0  0  0
   -3.9294    0.0712    1.5336 H   0  0  0  0  0  0  0  0  0  0  0  0
   -1.9226    0.8501    1.2694 C   0  0  1  0  0  0  0  0  0  0  0  0
   -2.0640    1.8209    1.7499 H   0  0  0  0  0  0  0  0  0  0  0  0
   -0.4535    0.4001    1.4556 C   0  0  1  0  0  0  0  0  0  0  0  0
    0.1908    1.0403    0.8456 H   0  0  0  0  0  0  0  0  0  0  0  0
    0.0315    0.5063    2.9190 C   0  0  0  0  0  0  0  0  0  0  0  0
    1.4007    0.1173    3.0419 O   0  0  0  0  0  0  0  0  0  0  0  0
   -0.2540   -0.9243    0.9144 O   0  0  0  0  0  0  0  0  0  0  0  0
   -2.1636    1.0231   -0.1368 O   0  0  0  0  0  0  0  0  0  0  0  0
   -2.8764   -0.1928    3.2506 O   0  0  0  0  0  0  0  0  0  0  0  0
   -3.4073   -2.5298    1.9914 O   0  0  0  0  0  0  0  0  0  0  0  0
    0.5360   -5.0414    0.2441 C   0  0  1  0  0  0  0  0  0  0  0  0
    1.5756   -5.3624    0.0890 H   0  0  0  0  0  0  0  0  0  0  0  0
   -0.1100   -6.0289    1.0856 O   0  0  0  0  0  0  0  0  0  0  0  0
   -0.1410   -4.9642   -1.1486 C   0  0  0  0  0  0  0  0  0  0  0  0
   -0.0448   -6.2008   -1.9289 N   0  0  0  0  0  0  0  0  0  0  0  0
    2.5427   -3.9398    2.2987 O   0  0  0  0  0  0  0  0  0  0  0  0
   -0.9289   -4.6013    3.5639 N   0  0  0  0  0  0  0  0  0  0  0  0
    4.4274  -13.9884    5.7819 C   0  0  2  0  0  0  0  0  0  0  0  0
    4.4447  -14.9482    6.3137 H   0  0  0  0  0  0  0  0  0  0  0  0
    3.7651  -13.0419    6.6934 N   0  0  0  0  0  0  0  0  0  0  0  0
    5.8662  -13.4939    5.5670 C   0  0  0  0  0  0  0  0  0  0  0  0
    5.9153  -12.3220    4.5849 C   0  0  2  0  0  0  0  0  0  0  0  0
    6.9501  -11.9999    4.4279 H   0  0  0  0  0  0  0  0  0  0  0  0
    5.2126  -11.1909    5.1199 O   0  0  0  0  0  0  0  0  0  0  0  0
    5.2768  -12.7127    3.2443 C   0  0  2  0  0  0  0  0  0  0  0  0
    5.1295  -11.7997    2.6525 H   0  0  0  0  0  0  0  0  0  0  0  0
    3.9579  -13.2401    3.4006 O   0  0  0  0  0  0  0  0  0  0  0  0
    6.1722  -13.6550    2.4255 C   0  0  0  0  0  0  0  0  0  0  0  0
    5.6308  -13.9296    1.1348 O   0  0  0  0  0  0  0  0  0  0  0  0
   -1.5912  -11.1840    2.6148 H   0  0  0  0  0  0  0  0  0  0  0  0
   -1.3072  -11.6596    4.1398 H   0  0  0  0  0  0  0  0  0  0  0  0
   -0.1282  -15.0557    2.9980 H   0  0  0  0  0  0  0  0  0  0  0  0
   -1.6946  -14.6214    3.6275 H   0  0  0  0  0  0  0  0  0  0  0  0
   -1.8574  -13.4132    5.5125 H   0  0  0  0  0  0  0  0  0  0  0  0
   -0.6029  -12.5068    6.0187 H   0  0  0  0  0  0  0  0  0  0  0  0
    2.2092  -13.8606    2.5002 H   0  0  0  0  0  0  0  0  0  0  0  0
   -1.5679   -8.4501    3.9412 H   0  0  0  0  0  0  0  0  0  0  0  0
    2.8081   -6.4696    5.6904 H   0  0  0  0  0  0  0  0  0  0  0  0
    2.5925   -8.0878    6.4071 H   0  0  0  0  0  0  0  0  0  0  0  0
    4.3539   -8.6340    4.7776 H   0  0  0  0  0  0  0  0  0  0  0  0
   -0.0681    1.5296    3.2872 H   0  0  0  0  0  0  0  0  0  0  0  0
   -0.5163   -0.1491    3.5954 H   0  0  0  0  0  0  0  0  0  0  0  0
    1.9345    0.7347    2.5136 H   0  0  0  0  0  0  0  0  0  0  0  0
   -3.0726    1.3544   -0.2461 H   0  0  0  0  0  0  0  0  0  0  0  0
   -3.3511   -1.0114    3.5113 H   0  0  0  0  0  0  0  0  0  0  0  0
   -3.2434   -3.3928    1.5617 H   0  0  0  0  0  0  0  0  0  0  0  0
    0.3321   -4.1618   -1.7290 H   0  0  0  0  0  0  0  0  0  0  0  0
   -1.2032   -4.7217   -1.0451 H   0  0  0  0  0  0  0  0  0  0  0  0
    0.9243   -6.4781   -2.0537 H   0  0  0  0  0  0  0  0  0  0  0  0
   -0.4265   -6.0380   -2.8622 H   0  0  0  0  0  0  0  0  0  0  0  0
    2.7957   -4.5765    1.6120 H   0  0  0  0  0  0  0  0  0  0  0  0
   -1.5073   -4.6172    2.7173 H   0  0  0  0  0  0  0  0  0  0  0  0
   -1.0163   -3.6743    3.9683 H   0  0  0  0  0  0  0  0  0  0  0  0
    3.7261  -12.1215    6.2395 H   0  0  0  0  0  0  0  0  0  0  0  0
    4.2943  -12.9326    7.5544 H   0  0  0  0  0  0  0  0  0  0  0  0
    6.4796  -14.3202    5.1897 H   0  0  0  0  0  0  0  0  0  0  0  0
    6.3120  -13.1962    6.5246 H   0  0  0  0  0  0  0  0  0  0  0  0
    5.6415  -10.9379    5.9569 H   0  0  0  0  0  0  0  0  0  0  0  0
    7.1606  -13.2059    2.2814 H   0  0  0  0  0  0  0  0  0  0  0  0
    6.3044  -14.6223    2.9207 H   0  0  0  0  0  0  0  0  0  0  0  0
    5.1124  -13.1594    0.8436 H   0  0  0  0  0  0  0  0  0  0  0  0
  1 64  1  1  0  0  0
  1 73  1  0  0  0  0
  1  3  1  0  0  0  0
  1  2  1  0  0  0  0
  3  4  1  0  0  0  0
  4  5  1  0  0  0  0
  4  6  1  6  0  0  0
  6  8  1  6  0  0  0
  6 18  1  0  0  0  0
  6  7  1  0  0  0  0
  8 10  1  1  0  0  0
  8 17  1  0  0  0  0
  8  9  1  0  0  0  0
 10 11  1  6  0  0  0
 10 12  1  0  0  0  0
 10 13  1  0  0  0  0
 12 76  1  0  0  0  0
 12 77  1  0  0  0  0
 13 14  1  0  0  0  0
 13 78  1  0  0  0  0
 13 79  1  0  0  0  0
 14 15  1  0  0  0  0
 14  4  1  6  0  0  0
 14 16  1  0  0  0  0
 16 80  1  0  0  0  0
 16 81  1  0  0  0  0
 17 82  1  0  0  0  0
 18 19  1  0  0  0  0
 19 20  1  0  0  0  0
 19 21  1  1  0  0  0
 19 28  1  0  0  0  0
 21 24  1  6  0  0  0
 21 23  1  0  0  0  0
 21 22  1  0  0  0  0
 23 83  1  0  0  0  0
 24 25  1  0  0  0  0
 24 26  1  6  0  0  0
 24 31  1  0  0  0  0
 26 28  1  0  0  0  0
 26 29  1  0  0  0  0
 26 27  1  6  0  0  0
 29 30  1  0  0  0  0
 29 84  1  0  0  0  0
 29 85  1  0  0  0  0
 30 86  1  0  0  0  0
 32 59  1  0  0  0  0
 32 33  1  6  0  0  0
 32 31  1  0  0  0  0
 34 32  1  6  0  0  0
 34 63  1  0  0  0  0
 34 35  1  0  0  0  0
 36 34  1  1  0  0  0
 36 62  1  0  0  0  0
 36 37  1  0  0  0  0
 38 36  1  1  0  0  0
 38 39  1  0  0  0  0
 38 40  1  0  0  0  0
 41 43  1  6  0  0  0
 41 53  1  0  0  0  0
 41 42  1  0  0  0  0
 41 40  1  0  0  0  0
 43 44  1  0  0  0  0
 43 45  1  1  0  0  0
 43 56  1  0  0  0  0
 45 47  1  6  0  0  0
 45 55  1  0  0  0  0
 45 46  1  0  0  0  0
 47 48  1  0  0  0  0
 47 49  1  1  0  0  0
 47 54  1  0  0  0  0
 49 53  1  0  0  0  0
 49 51  1  0  0  0  0
 49 50  1  6  0  0  0
 51 52  1  0  0  0  0
 51 87  1  0  0  0  0
 51 88  1  0  0  0  0
 52 89  1  0  0  0  0
 54 90  1  0  0  0  0
 55 91  1  0  0  0  0
 56 92  1  0  0  0  0
 57 38  1  1  0  0  0
 57 58  1  0  0  0  0
 57 59  1  0  0  0  0
 57 60  1  0  0  0  0
 60 61  1  0  0  0  0
 60 93  1  0  0  0  0
 60 94  1  0  0  0  0
 61 95  1  0  0  0  0
 61 96  1  0  0  0  0
 62 97  1  0  0  0  0
 63 98  1  0  0  0  0
 63 99  1  0  0  0  0
 64 67  1  0  0  0  0
 64 66  1  0  0  0  0
 64 65  1  1  0  0  0
 66100  1  0  0  0  0
 66101  1  0  0  0  0
 67 68  1  0  0  0  0
 67102  1  0  0  0  0
 67103  1  0  0  0  0
 68 69  1  0  0  0  0
 68 70  1  0  0  0  0
 68 71  1  6  0  0  0
 70104  1  0  0  0  0
 71 73  1  0  0  0  0
 71 74  1  0  0  0  0
 71 72  1  6  0  0  0
 74 75  1  0  0  0  0
 74105  1  0  0  0  0
 74106  1  0  0  0  0
 75107  1  0  0  0  0
M  END
$$$$
