@<TRIPOS>MOLECULE
3C5D_LIV_B_24
 107 111 0 0 0
SMALL
GASTEIGER

@<TRIPOS>ATOM
      1 C           3.7353  -14.2365    4.3906 C.3     1  UNL1        0.1752
      2 H           4.1920  -15.1508    3.9919 H       1  UNL1        0.0926
      3 O           2.3272  -14.5469    4.4216 O.3     1  UNL1       -0.3423
      4 C           1.4078  -13.5433    4.9212 C.3     1  UNL1        0.1055
      5 H           1.6403  -13.3498    5.9668 H       1  UNL1        0.0639
      6 C           1.4178  -12.2086    4.1121 C.3     1  UNL1        0.1166
      7 H           2.4421  -11.8517    4.0399 H       1  UNL1        0.0650
      8 C           0.8494  -12.4494    2.6836 C.3     1  UNL1        0.0990
      9 H           0.8613  -11.5202    2.1086 H       1  UNL1        0.0636
     10 C          -0.6039  -12.9797    2.7295 C.3     1  UNL1        0.0351
     11 H          -0.9039  -13.2398    1.7077 H       1  UNL1        0.0485
     12 N          -1.5918  -12.0052    3.2191 N.3     1  UNL1       -0.3250
     13 C          -0.6559  -14.2699    3.5553 C.3     1  UNL1       -0.0175
     14 C          -0.0248  -14.1720    4.9571 C.3     1  UNL1        0.0355
     15 H           0.0615  -15.2014    5.3281 H       1  UNL1        0.0485
     16 N          -0.9167  -13.4743    5.9060 N.3     1  UNL1       -0.3250
     17 O           1.6376  -13.3468    1.8916 O.3     1  UNL1       -0.3876
     18 O           0.7038  -11.1777    4.8332 O.3     1  UNL1       -0.3402
     19 C           0.8233   -9.8932    4.2123 C.3     1  UNL1        0.1884
     20 H           0.4354   -9.9367    3.1913 H       1  UNL1        0.0938
     21 C           0.0289   -8.8318    4.9653 C.3     1  UNL1        0.1345
     22 H           0.2348   -8.8963    6.0409 H       1  UNL1        0.0671
     23 O          -1.3768   -8.9220    4.7768 O.3     1  UNL1       -0.3841
     24 C           0.6344   -7.5671    4.3625 C.3     1  UNL1        0.1205
     25 H           0.4275   -6.7168    5.0093 H       1  UNL1        0.0651
     26 C           2.1166   -7.9683    4.2789 C.3     1  UNL1        0.1135
     27 H           2.6244   -7.5963    3.3862 H       1  UNL1        0.0647
     28 O           2.1731   -9.4064    4.1778 O.3     1  UNL1       -0.3405
     29 C           2.9127   -7.5448    5.5133 C.3     1  UNL1        0.0730
     30 O           4.3008   -7.8131    5.3080 O.3     1  UNL1       -0.3924
     31 O           0.0448   -7.3380    3.0575 O.3     1  UNL1       -0.3410
     32 C           0.5672   -6.1945    2.3512 C.3     1  UNL1        0.1776
     33 H           1.6086   -6.4170    2.1090 H       1  UNL1        0.0927
     34 C           0.4715   -4.8701    3.1624 C.3     1  UNL1        0.0853
     35 H           1.0485   -4.9676    4.0856 H       1  UNL1        0.0535
     36 C           1.1186   -3.7439    2.3333 C.3     1  UNL1        0.1036
     37 H           0.9921   -2.8030    2.8744 H       1  UNL1        0.0637
     38 C           0.5081   -3.6425    0.9211 C.3     1  UNL1        0.1165
     39 H           1.1044   -2.9579    0.3046 H       1  UNL1        0.0650
     40 O          -0.8614   -3.1993    0.9224 O.3     1  UNL1       -0.3402
     41 C          -1.0872   -1.9078    1.4956 C.3     1  UNL1        0.1884
     42 H          -0.8960   -1.9852    2.5665 H       1  UNL1        0.0938
     43 C          -2.5791   -1.5846    1.2879 C.3     1  UNL1        0.1341
     44 H          -2.8332   -1.6475    0.2229 H       1  UNL1        0.0671
     45 C          -2.9033   -0.1870    1.8185 C.3     1  UNL1        0.1141
     46 H          -3.9294    0.0712    1.5336 H       1  UNL1        0.0648
     47 C          -1.9226    0.8501    1.2694 C.3     1  UNL1        0.1119
     48 H          -2.0640    1.8209    1.7499 H       1  UNL1        0.0647
     49 C          -0.4535    0.4001    1.4556 C.3     1  UNL1        0.1130
     50 H           0.1908    1.0403    0.8456 H       1  UNL1        0.0647
     51 C           0.0315    0.5063    2.9190 C.3     1  UNL1        0.0730
     52 O           1.4007    0.1173    3.0419 O.3     1  UNL1       -0.3924
     53 O          -0.2540   -0.9243    0.9144 O.3     1  UNL1       -0.3405
     54 O          -2.1636    1.0231   -0.1368 O.3     1  UNL1       -0.3865
     55 O          -2.8764   -0.1928    3.2506 O.3     1  UNL1       -0.3864
     56 O          -3.4073   -2.5298    1.9914 O.3     1  UNL1       -0.3841
     57 C           0.5360   -5.0414    0.2441 C.3     1  UNL1        0.1026
     58 H           1.5756   -5.3624    0.0890 H       1  UNL1        0.0636
     59 O          -0.1100   -6.0289    1.0856 O.3     1  UNL1       -0.3425
     60 C          -0.1410   -4.9642   -1.1486 C.3     1  UNL1        0.0222
     61 N          -0.0448   -6.2008   -1.9289 N.3     1  UNL1       -0.3276
     62 O           2.5427   -3.9398    2.2987 O.3     1  UNL1       -0.3874
     63 N          -0.9289   -4.6013    3.5639 N.3     1  UNL1       -0.3211
     64 C           4.4274  -13.9884    5.7819 C.3     1  UNL1        0.0590
     65 H           4.4447  -14.9482    6.3137 H       1  UNL1        0.0509
     66 N           3.7651  -13.0419    6.6934 N.3     1  UNL1       -0.3231
     67 C           5.8662  -13.4939    5.5670 C.3     1  UNL1       -0.0044
     68 C           5.9153  -12.3220    4.5849 C.3     1  UNL1        0.0851
     69 H           6.9501  -11.9999    4.4279 H       1  UNL1        0.0620
     70 O           5.2126  -11.1909    5.1199 O.3     1  UNL1       -0.3891
     71 C           5.2768  -12.7127    3.2443 C.3     1  UNL1        0.1105
     72 H           5.1295  -11.7997    2.6525 H       1  UNL1        0.0646
     73 O           3.9579  -13.2401    3.4006 O.3     1  UNL1       -0.3417
     74 C           6.1722  -13.6550    2.4255 C.3     1  UNL1        0.0729
     75 O           5.6308  -13.9296    1.1348 O.3     1  UNL1       -0.3924
     76 H          -1.5912  -11.1840    2.6148 H       1  UNL1        0.1185
     77 H          -1.3072  -11.6596    4.1398 H       1  UNL1        0.1185
     78 H          -0.1282  -15.0557    2.9980 H       1  UNL1        0.0297
     79 H          -1.6946  -14.6214    3.6275 H       1  UNL1        0.0297
     80 H          -1.8574  -13.4132    5.5125 H       1  UNL1        0.1185
     81 H          -0.6029  -12.5068    6.0187 H       1  UNL1        0.1185
     82 H           2.2092  -13.8606    2.5002 H       1  UNL1        0.2100
     83 H          -1.5679   -8.4501    3.9412 H       1  UNL1        0.2101
     84 H           2.8081   -6.4696    5.6904 H       1  UNL1        0.0584
     85 H           2.5925   -8.0878    6.4071 H       1  UNL1        0.0584
     86 H           4.3539   -8.6340    4.7776 H       1  UNL1        0.2095
     87 H          -0.0681    1.5296    3.2872 H       1  UNL1        0.0584
     88 H          -0.5163   -0.1491    3.5954 H       1  UNL1        0.0584
     89 H           1.9345    0.7347    2.5136 H       1  UNL1        0.2095
     90 H          -3.0726    1.3544   -0.2461 H       1  UNL1        0.2100
     91 H          -3.3511   -1.0114    3.5113 H       1  UNL1        0.2100
     92 H          -3.2434   -3.3928    1.5617 H       1  UNL1        0.2101
     93 H           0.3321   -4.1618   -1.7290 H       1  UNL1        0.0448
     94 H          -1.2032   -4.7217   -1.0451 H       1  UNL1        0.0448
     95 H           0.9243   -6.4781   -2.0537 H       1  UNL1        0.1183
     96 H          -0.4265   -6.0380   -2.8622 H       1  UNL1        0.1183
     97 H           2.7957   -4.5765    1.6120 H       1  UNL1        0.2100
     98 H          -1.5073   -4.6172    2.7173 H       1  UNL1        0.1187
     99 H          -1.0163   -3.6743    3.9683 H       1  UNL1        0.1187
    100 H           3.7261  -12.1215    6.2395 H       1  UNL1        0.1186
    101 H           4.2943  -12.9326    7.5544 H       1  UNL1        0.1186
    102 H           6.4796  -14.3202    5.1897 H       1  UNL1        0.0308
    103 H           6.3120  -13.1962    6.5246 H       1  UNL1        0.0308
    104 H           5.6415  -10.9379    5.9569 H       1  UNL1        0.2099
    105 H           7.1606  -13.2059    2.2814 H       1  UNL1        0.0584
    106 H           6.3044  -14.6223    2.9207 H       1  UNL1        0.0584
    107 H           5.1124  -13.1594    0.8436 H       1  UNL1        0.2095
@<TRIPOS>BOND
     1     1    64    1
     2     1    73    1
     3     1     3    1
     4     1     2    1
     5     3     4    1
     6     4     5    1
     7     4     6    1
     8     6     8    1
     9     6    18    1
    10     6     7    1
    11     8    10    1
    12     8    17    1
    13     8     9    1
    14    10    11    1
    15    10    12    1
    16    10    13    1
    17    12    76    1
    18    12    77    1
    19    13    14    1
    20    13    78    1
    21    13    79    1
    22    14    15    1
    23    14     4    1
    24    14    16    1
    25    16    80    1
    26    16    81    1
    27    17    82    1
    28    18    19    1
    29    19    20    1
    30    19    21    1
    31    19    28    1
    32    21    24    1
    33    21    23    1
    34    21    22    1
    35    23    83    1
    36    24    25    1
    37    24    26    1
    38    24    31    1
    39    26    28    1
    40    26    29    1
    41    26    27    1
    42    29    30    1
    43    29    84    1
    44    29    85    1
    45    30    86    1
    46    32    59    1
    47    32    33    1
    48    32    31    1
    49    34    32    1
    50    34    63    1
    51    34    35    1
    52    36    34    1
    53    36    62    1
    54    36    37    1
    55    38    36    1
    56    38    39    1
    57    38    40    1
    58    41    43    1
    59    41    53    1
    60    41    42    1
    61    41    40    1
    62    43    44    1
    63    43    45    1
    64    43    56    1
    65    45    47    1
    66    45    55    1
    67    45    46    1
    68    47    48    1
    69    47    49    1
    70    47    54    1
    71    49    53    1
    72    49    51    1
    73    49    50    1
    74    51    52    1
    75    51    87    1
    76    51    88    1
    77    52    89    1
    78    54    90    1
    79    55    91    1
    80    56    92    1
    81    57    38    1
    82    57    58    1
    83    57    59    1
    84    57    60    1
    85    60    61    1
    86    60    93    1
    87    60    94    1
    88    61    95    1
    89    61    96    1
    90    62    97    1
    91    63    98    1
    92    63    99    1
    93    64    67    1
    94    64    66    1
    95    64    65    1
    96    66   100    1
    97    66   101    1
    98    67    68    1
    99    67   102    1
   100    67   103    1
   101    68    69    1
   102    68    70    1
   103    68    71    1
   104    70   104    1
   105    71    73    1
   106    71    74    1
   107    71    72    1
   108    74    75    1
   109    74   105    1
   110    74   106    1
   111    75   107    1
