@<TRIPOS>MOLECULE
3SUH_FFO_X_103
 57 59 0 0 0
SMALL
GASTEIGER

@<TRIPOS>ATOM
      1 N           2.1662   -2.6786    0.5006 N.ar    0  UNK0       -0.1994
      2 C           2.8920   -3.0144   -0.5267 C.ar    0  UNK0        0.1948
      3 N           2.6491   -4.1575   -1.2583 N.pl3   0  UNK0       -0.3289
      4 N           3.9747   -2.2566   -0.9344 N.ar    0  UNK0       -0.2937
      5 H           4.5220   -2.5839   -1.7250 H       0  UNK0        0.1716
      6 C           4.2839   -1.0234   -0.3979 C.ar    0  UNK0        0.2761
      7 O           5.1760   -0.2974   -0.8241 O.2     0  UNK0       -0.2657
      8 C           3.3709   -0.6144    0.7128 C.ar    0  UNK0        0.1416
      9 N           3.7973    0.4064    1.5768 N.am    0  UNK0       -0.2607
     10 C           2.7082    1.1816    2.2410 C.3     0  UNK0        0.0619
     11 H           2.9921    1.2616    3.3000 H       0  UNK0        0.0535
     12 C           1.3560    0.4446    2.2296 C.3     0  UNK0        0.0310
     13 N           1.5479   -0.9948    2.1141 N.pl3   0  UNK0       -0.3255
     14 C           2.4746   -1.5163    1.1872 C.ar    0  UNK0        0.1493
     15 C           2.5787    2.6269    1.7151 C.3     0  UNK0        0.0296
     16 N           3.2759    2.8061    0.4466 N.pl3   0  UNK0       -0.3420
     17 C           3.5055    4.1016   -0.0377 C.ar    0  UNK0        0.0272
     18 C           3.7333    5.2073    0.7924 C.ar    0  UNK0       -0.0401
     19 C           4.1793    6.4300    0.2810 C.ar    0  UNK0       -0.0479
     20 C           4.4156    6.5752   -1.0856 C.ar    0  UNK0        0.0368
     21 C           4.0937    5.5081   -1.9347 C.ar    0  UNK0       -0.0479
     22 C           3.6370    4.2949   -1.4189 C.ar    0  UNK0       -0.0401
     23 C           5.3373    7.6214   -1.6321 C.2     0  UNK0        0.2447
     24 O           5.5693    7.5959   -2.8371 O.2     0  UNK0       -0.2702
     25 N           5.8187    8.5630   -0.7403 N.am    1  GLU1       -0.2983
     26 CA          7.0731    9.3326   -0.8177 C.3     1  GLU1        0.1209
     27 HA          7.8457    8.7172   -0.3422 H       1  GLU1        0.0614
     28 CB          7.4982    9.7776   -2.2271 C.3     1  GLU1       -0.0140
     29 CG          8.9844   10.1461   -2.3261 C.3     1  GLU1        0.0470
     30 CD          9.7611    9.1550   -3.1541 C.2     1  GLU1        0.3048
     31 OE1        10.3225    9.4161   -4.2075 O.2     1  GLU1       -0.2510
     32 OE2         9.8204    7.9386   -2.5576 O.3     1  GLU1       -0.4806
     33 C           6.7922   10.5303    0.0911 C.2     1  GLU1        0.3253
     34 O           5.7924   10.6845    0.7831 O.2     1  GLU1       -0.2489
     35 OXT         7.8126   11.4223    0.0873 O.3     1  GLU1       -0.4793
     36 C           5.0382    0.3169    2.2230 C.2     0  UNK0        0.2073
     37 O           5.3459    0.7740    3.3190 O.2     0  UNK0       -0.2790
     38 H           2.9448   -4.1018   -2.2316 H       0  UNK0        0.1451
     39 H           1.6760   -4.4594   -1.2363 H       0  UNK0        0.1451
     40 H           0.7221    0.7873    1.4039 H       0  UNK0        0.0480
     41 H           0.8064    0.6674    3.1507 H       0  UNK0        0.0480
     42 H           0.6861   -1.5351    2.1210 H       0  UNK0        0.1476
     43 H           2.9957    3.2757    2.4914 H       0  UNK0        0.0480
     44 H           1.5286    2.9124    1.5898 H       0  UNK0        0.0480
     45 H           2.9074    2.1937   -0.2799 H       0  UNK0        0.1461
     46 H           3.6374    5.1341    1.8719 H       0  UNK0        0.0636
     47 H           4.3910    7.2113    0.9995 H       0  UNK0        0.0626
     48 H           4.0970    5.6408   -3.0162 H       0  UNK0        0.0626
     49 H           3.4247    3.4821   -2.1110 H       0  UNK0        0.0636
     50 H           5.3607    8.6243    0.1620 H       1  GLU1        0.1498
     51 HB1         6.8905   10.6373   -2.5400 H       1  GLU1        0.0294
     52 HB2         7.3028    9.0024   -2.9654 H       1  GLU1        0.0294
     53 HG1         9.4750   10.2095   -1.3511 H       1  GLU1        0.0378
     54 HG2         9.0848   11.1257   -2.8032 H       1  GLU1        0.0378
     55 HE2         9.0194    7.3955   -2.7222 H       1  GLU1        0.2951
     56 HXT         7.5156   12.3126    0.3749 H       1  GLU1        0.2951
     57 H           5.7914   -0.2060    1.6128 H       0  UNK0        0.1257
@<TRIPOS>BOND
     1     2     1   ar
     2     3     2    1
     3     4     2   ar
     4     4     5    1
     5     6     4   ar
     6     7     6    2
     7     8     6   ar
     8     9     8    1
     9    10     9    1
    10    10    11    1
    11    12    10    1
    12    13    12    1
    13    14    13    1
    14    14     1   ar
    15    14     8   ar
    16    15    10    1
    17    16    15    1
    18    17    16    1
    19    18    17   ar
    20    19    18   ar
    21    20    19   ar
    22    21    20   ar
    23    22    21   ar
    24    22    17   ar
    25    23    20    1
    26    24    23    2
    27    25    23   am
    28    26    25    1
    29    26    27    1
    30    28    26    1
    31    29    28    1
    32    30    29    1
    33    31    30    2
    34    32    30    1
    35    33    26    1
    36    34    33    2
    37    35    33    1
    38    36     9   am
    39    37    36    2
    40     3    38    1
    41     3    39    1
    42    12    40    1
    43    12    41    1
    44    13    42    1
    45    15    43    1
    46    15    44    1
    47    16    45    1
    48    18    46    1
    49    19    47    1
    50    21    48    1
    51    22    49    1
    52    25    50    1
    53    28    51    1
    54    28    52    1
    55    29    53    1
    56    29    54    1
    57    32    55    1
    58    35    56    1
    59    36    57    1
