3SUH_FFO_X_103
  1228              3D

 57 59  0  0  0  0  0  0  0  0999 V2000
    2.1662   -2.6786    0.5006 N   0  0  0  0  0  0  0  0  0  0  0  0
    2.8920   -3.0144   -0.5267 C   0  0  0  0  0  0  0  0  0  0  0  0
    2.6491   -4.1575   -1.2583 N   0  0  0  0  0  0  0  0  0  0  0  0
    3.9747   -2.2566   -0.9344 N   0  0  0  0  0  0  0  0  0  0  0  0
    4.5220   -2.5839   -1.7250 H   0  0  0  0  0  0  0  0  0  0  0  0
    4.2839   -1.0234   -0.3979 C   0  0  0  0  0  0  0  0  0  0  0  0
    5.1760   -0.2974   -0.8241 O   0  0  0  0  0  0  0  0  0  0  0  0
    3.3709   -0.6144    0.7128 C   0  0  0  0  0  0  0  0  0  0  0  0
    3.7973    0.4064    1.5768 N   0  0  0  0  0  0  0  0  0  0  0  0
    2.7082    1.1816    2.2410 C   0  0  0  0  0  0  0  0  0  0  0  0
    2.9921    1.2616    3.3000 H   0  0  0  0  0  0  0  0  0  0  0  0
    1.3560    0.4446    2.2296 C   0  0  0  0  0  0  0  0  0  0  0  0
    1.5479   -0.9948    2.1141 N   0  0  0  0  0  0  0  0  0  0  0  0
    2.4746   -1.5163    1.1872 C   0  0  0  0  0  0  0  0  0  0  0  0
    2.5787    2.6269    1.7151 C   0  0  0  0  0  0  0  0  0  0  0  0
    3.2759    2.8061    0.4466 N   0  0  0  0  0  0  0  0  0  0  0  0
    3.5055    4.1016   -0.0377 C   0  0  0  0  0  0  0  0  0  0  0  0
    3.7333    5.2073    0.7924 C   0  0  0  0  0  0  0  0  0  0  0  0
    4.1793    6.4300    0.2810 C   0  0  0  0  0  0  0  0  0  0  0  0
    4.4156    6.5752   -1.0856 C   0  0  0  0  0  0  0  0  0  0  0  0
    4.0937    5.5081   -1.9347 C   0  0  0  0  0  0  0  0  0  0  0  0
    3.6370    4.2949   -1.4189 C   0  0  0  0  0  0  0  0  0  0  0  0
    5.3373    7.6214   -1.6321 C   0  0  0  0  0  0  0  0  0  0  0  0
    5.5693    7.5959   -2.8371 O   0  0  0  0  0  0  0  0  0  0  0  0
    5.8187    8.5630   -0.7403 N   0  0  0  0  0  0  0  0  0  0  0  0
    7.0731    9.3326   -0.8177 C   0  0  0  0  0  0  0  0  0  0  0  0
    7.8457    8.7172   -0.3422 H   0  0  0  0  0  0  0  0  0  0  0  0
    7.4982    9.7776   -2.2271 C   0  0  0  0  0  0  0  0  0  0  0  0
    8.9844   10.1461   -2.3261 C   0  0  0  0  0  0  0  0  0  0  0  0
    9.7611    9.1550   -3.1541 C   0  0  0  0  0  0  0  0  0  0  0  0
   10.3225    9.4161   -4.2075 O   0  0  0  0  0  0  0  0  0  0  0  0
    9.8204    7.9386   -2.5576 O   0  0  0  0  0  0  0  0  0  0  0  0
    6.7922   10.5303    0.0911 C   0  0  0  0  0  0  0  0  0  0  0  0
    5.7924   10.6845    0.7831 O   0  0  0  0  0  0  0  0  0  0  0  0
    7.8126   11.4223    0.0873 O   0  0  0  0  0  0  0  0  0  0  0  0
    5.0382    0.3169    2.2230 C   0  0  0  0  0  0  0  0  0  0  0  0
    5.3459    0.7740    3.3190 O   0  0  0  0  0  0  0  0  0  0  0  0
    2.9448   -4.1018   -2.2316 H   0  0  0  0  0  0  0  0  0  0  0  0
    1.6760   -4.4594   -1.2363 H   0  0  0  0  0  0  0  0  0  0  0  0
    0.7221    0.7873    1.4039 H   0  0  0  0  0  0  0  0  0  0  0  0
    0.8064    0.6674    3.1507 H   0  0  0  0  0  0  0  0  0  0  0  0
    0.6861   -1.5351    2.1210 H   0  0  0  0  0  0  0  0  0  0  0  0
    2.9957    3.2757    2.4914 H   0  0  0  0  0  0  0  0  0  0  0  0
    1.5286    2.9124    1.5898 H   0  0  0  0  0  0  0  0  0  0  0  0
    2.9074    2.1937   -0.2799 H   0  0  0  0  0  0  0  0  0  0  0  0
    3.6374    5.1341    1.8719 H   0  0  0  0  0  0  0  0  0  0  0  0
    4.3910    7.2113    0.9995 H   0  0  0  0  0  0  0  0  0  0  0  0
    4.0970    5.6408   -3.0162 H   0  0  0  0  0  0  0  0  0  0  0  0
    3.4247    3.4821   -2.1110 H   0  0  0  0  0  0  0  0  0  0  0  0
    5.3607    8.6243    0.1620 H   0  0  0  0  0  0  0  0  0  0  0  0
    6.8905   10.6373   -2.5400 H   0  0  0  0  0  0  0  0  0  0  0  0
    7.3028    9.0024   -2.9654 H   0  0  0  0  0  0  0  0  0  0  0  0
    9.4750   10.2095   -1.3511 H   0  0  0  0  0  0  0  0  0  0  0  0
    9.0848   11.1257   -2.8032 H   0  0  0  0  0  0  0  0  0  0  0  0
    9.0194    7.3955   -2.7222 H   0  0  0  0  0  0  0  0  0  0  0  0
    7.5156   12.3126    0.3749 H   0  0  0  0  0  0  0  0  0  0  0  0
    5.7914   -0.2060    1.6128 H   0  0  0  0  0  0  0  0  0  0  0  0
  2  1  2  0  0  0  0
  3  2  1  0  0  0  0
  4  2  1  0  0  0  0
  4  5  1  0  0  0  0
  6  4  1  0  0  0  0
  7  6  2  0  0  0  0
  8  6  1  0  0  0  0
  9  8  1  0  0  0  0
 10  9  1  0  0  0  0
 10 11  1  0  0  0  0
 12 10  1  0  0  0  0
 13 12  1  0  0  0  0
 14 13  1  0  0  0  0
 14  1  1  0  0  0  0
 14  8  2  0  0  0  0
 15 10  1  0  0  0  0
 16 15  1  0  0  0  0
 17 16  1  0  0  0  0
 18 17  2  0  0  0  0
 19 18  1  0  0  0  0
 20 19  2  0  0  0  0
 21 20  1  0  0  0  0
 22 21  2  0  0  0  0
 22 17  1  0  0  0  0
 23 20  1  0  0  0  0
 24 23  2  0  0  0  0
 25 23  1  0  0  0  0
 26 25  1  0  0  0  0
 26 27  1  0  0  0  0
 28 26  1  0  0  0  0
 29 28  1  0  0  0  0
 30 29  1  0  0  0  0
 31 30  2  0  0  0  0
 32 30  1  0  0  0  0
 33 26  1  0  0  0  0
 34 33  2  0  0  0  0
 35 33  1  0  0  0  0
 36  9  1  0  0  0  0
 37 36  2  0  0  0  0
  3 38  1  0  0  0  0
  3 39  1  0  0  0  0
 12 40  1  0  0  0  0
 12 41  1  0  0  0  0
 13 42  1  0  0  0  0
 15 43  1  0  0  0  0
 15 44  1  0  0  0  0
 16 45  1  0  0  0  0
 18 46  1  0  0  0  0
 19 47  1  0  0  0  0
 21 48  1  0  0  0  0
 22 49  1  0  0  0  0
 25 50  1  0  0  0  0
 28 51  1  0  0  0  0
 28 52  1  0  0  0  0
 29 53  1  0  0  0  0
 29 54  1  0  0  0  0
 32 55  1  0  0  0  0
 35 56  1  0  0  0  0
 36 57  1  0  0  0  0
M  END
>  <energy>
157.37902980052922

$$$$
