@<TRIPOS>MOLECULE
2F4T_AB9_B_1
 78 79 0 0 0
SMALL
GASTEIGER

@<TRIPOS>ATOM
      1 C          -0.5569    3.0418    2.0105 C.3     1  UNL1        0.1776
      2 H          -0.2192    3.9682    2.4758 H       1  UNL1        0.0927
      3 C          -1.9604    2.7400    2.6261 C.3     1  UNL1        0.0853
      4 H          -1.8471    2.7089    3.7161 H       1  UNL1        0.0535
      5 C          -2.9216    3.8922    2.2363 C.3     1  UNL1        0.1033
      6 H          -3.9325    3.6315    2.5733 H       1  UNL1        0.0637
      7 O          -2.6077    5.1299    2.8822 O.3     1  UNL1       -0.3874
      8 C          -2.9429    4.1135    0.7140 C.3     1  UNL1        0.1100
      9 H          -3.5389    4.9986    0.4677 H       1  UNL1        0.0646
     10 O          -3.5813    3.0018    0.0633 O.3     1  UNL1       -0.3866
     11 C          -1.5149    4.2647    0.1458 C.3     1  UNL1        0.1022
     12 H          -1.5790    4.1241   -0.9416 H       1  UNL1        0.0636
     13 O          -0.6444    3.1984    0.5902 O.3     1  UNL1       -0.3425
     14 C          -0.8738    5.6603    0.3699 C.3     1  UNL1        0.0222
     15 N          -1.6137    6.7975   -0.1905 N.3     1  UNL1       -0.3276
     16 N          -2.5099    1.4215    2.2230 N.3     1  UNL1       -0.3211
     17 O           0.3694    2.0093    2.3954 O.3     1  UNL1       -0.3422
     18 C           1.6697    2.0872    1.7758 C.3     1  UNL1        0.1051
     19 H           1.5273    2.0645    0.6881 H       1  UNL1        0.0639
     20 C           2.4915    0.8411    2.2160 C.3     1  UNL1        0.0358
     21 H           2.7153    0.9278    3.2879 H       1  UNL1        0.0485
     22 C           3.7971    0.7926    1.4283 C.3     1  UNL1       -0.0142
     23 C           4.6617    2.0150    1.7356 C.3     1  UNL1        0.0533
     24 H           4.9780    1.9504    2.7850 H       1  UNL1        0.0525
     25 N           5.9236    1.9450    0.9849 N.am    1  UNL1       -0.3077
     26 C           6.0411    1.9814   -0.3938 C.2     1  UNL1        0.2420
     27 O           5.0764    2.0385   -1.1492 O.2     1  UNL1       -0.2730
     28 C           7.4848    2.0590   -0.9145 C.3     1  UNL1        0.1320
     29 H           7.8922    3.0141   -0.5650 H       1  UNL1        0.0690
     30 C           8.3183    0.8823   -0.4122 C.3     1  UNL1       -0.0059
     31 C           9.7686    0.8998   -0.8779 C.3     1  UNL1       -0.0041
     32 N          10.4889    2.0653   -0.3691 N.3     1  UNL1       -0.3299
     33 O           7.5078    2.0892   -2.3406 O.3     1  UNL1       -0.3825
     34 C           3.9104    3.3580    1.5666 C.3     1  UNL1        0.1053
     35 H           3.7847    3.6065    0.5092 H       1  UNL1        0.0641
     36 C           2.4835    3.3394    2.1829 C.3     1  UNL1        0.1106
     37 H           2.5379    3.3938    3.2789 H       1  UNL1        0.0646
     38 O           1.8089    4.5434    1.7858 O.3     1  UNL1       -0.3865
     39 O           4.6158    4.4257    2.2378 O.3     1  UNL1       -0.3708
     40 C           5.8165    4.9099    1.6352 C.3     1  UNL1        0.0607
     41 C           5.6826    5.3717    0.1748 C.3     1  UNL1        0.0194
     42 N           4.7888    6.5224    0.1172 N.3     1  UNL1       -0.3126
     43 C           4.4822    6.9182   -1.2596 C.3     1  UNL1        0.0083
     44 C           3.6579    8.2177   -1.2439 C.3     1  UNL1        0.0056
     45 N           4.3222    9.2773   -0.4694 N.3     1  UNL1       -0.3288
     46 N           1.7862   -0.4363    2.0527 N.3     1  UNL1       -0.3250
     47 H          -1.9437    4.9875    3.5803 H       1  UNL1        0.2100
     48 H          -4.5117    2.9911    0.3547 H       1  UNL1        0.2100
     49 H          -0.6906    5.8552    1.4322 H       1  UNL1        0.0448
     50 H           0.1173    5.6592   -0.0947 H       1  UNL1        0.0448
     51 H          -2.4794    6.9420    0.3313 H       1  UNL1        0.1183
     52 H          -1.8700    6.6081   -1.1569 H       1  UNL1        0.1183
     53 H          -2.5630    1.4138    1.1965 H       1  UNL1        0.1187
     54 H          -3.4689    1.3267    2.5498 H       1  UNL1        0.1187
     55 H           3.5746    0.7347    0.3559 H       1  UNL1        0.0300
     56 H           4.3674   -0.1149    1.6711 H       1  UNL1        0.0300
     57 H           6.7715    1.9797    1.5405 H       1  UNL1        0.1491
     58 H           7.8573   -0.0502   -0.7619 H       1  UNL1        0.0307
     59 H           8.3014    0.8407    0.6837 H       1  UNL1        0.0307
     60 H           9.8357    0.8669   -1.9681 H       1  UNL1        0.0423
     61 H          10.2605   -0.0033   -0.4952 H       1  UNL1        0.0423
     62 H          10.1887    2.8888   -0.8902 H       1  UNL1        0.1182
     63 H          11.4772    1.9591   -0.6064 H       1  UNL1        0.1182
     64 H           6.5980    2.3147   -2.6253 H       1  UNL1        0.2104
     65 H           1.8285    4.5829    0.8139 H       1  UNL1        0.2100
     66 H           6.6114    4.1682    1.7392 H       1  UNL1        0.0572
     67 H           6.1437    5.7589    2.2479 H       1  UNL1        0.0572
     68 H           5.2934    4.5759   -0.4611 H       1  UNL1        0.0446
     69 H           6.6731    5.6376   -0.2112 H       1  UNL1        0.0446
     70 H           5.2503    7.3097    0.5738 H       1  UNL1        0.1221
     71 H           3.9061    6.1318   -1.7617 H       1  UNL1        0.0436
     72 H           5.4057    7.0822   -1.8268 H       1  UNL1        0.0436
     73 H           2.6751    8.0246   -0.7980 H       1  UNL1        0.0434
     74 H           3.5048    8.5610   -2.2699 H       1  UNL1        0.0434
     75 H           4.2998    9.0042    0.5143 H       1  UNL1        0.1183
     76 H           3.7468   10.1178   -0.5183 H       1  UNL1        0.1183
     77 H           0.8445   -0.3118    2.4394 H       1  UNL1        0.1185
     78 H           1.6391   -0.6317    1.0637 H       1  UNL1        0.1185
@<TRIPOS>BOND
     1     1     3    1
     2     1    13    1
     3     1    17    1
     4     1     2    1
     5     3     5    1
     6     3    16    1
     7     3     4    1
     8     5     8    1
     9     5     7    1
    10     5     6    1
    11     7    47    1
    12     8     9    1
    13     8    10    1
    14     8    11    1
    15    10    48    1
    16    11    13    1
    17    11    14    1
    18    11    12    1
    19    14    15    1
    20    14    49    1
    21    14    50    1
    22    15    51    1
    23    15    52    1
    24    16    53    1
    25    16    54    1
    26    18    20    1
    27    18    36    1
    28    18    19    1
    29    18    17    1
    30    20    21    1
    31    20    22    1
    32    20    46    1
    33    22    23    1
    34    22    55    1
    35    22    56    1
    36    23    25    1
    37    23    24    1
    38    25    26   am
    39    25    57    1
    40    26    27    2
    41    26    28    1
    42    28    29    1
    43    28    30    1
    44    28    33    1
    45    30    31    1
    46    30    58    1
    47    30    59    1
    48    31    32    1
    49    31    60    1
    50    31    61    1
    51    32    62    1
    52    32    63    1
    53    33    64    1
    54    34    23    1
    55    34    35    1
    56    34    39    1
    57    36    34    1
    58    36    38    1
    59    36    37    1
    60    38    65    1
    61    39    40    1
    62    40    41    1
    63    40    66    1
    64    40    67    1
    65    41    42    1
    66    41    68    1
    67    41    69    1
    68    42    43    1
    69    42    70    1
    70    43    44    1
    71    43    71    1
    72    43    72    1
    73    44    45    1
    74    44    73    1
    75    44    74    1
    76    45    75    1
    77    45    76    1
    78    46    77    1
    79    46    78    1
