2F4T_AB9_B_1
 OpenBabel03221817223D

 78 79  0  0  1  0  0  0  0  0999 V2000
   -0.5569    3.0418    2.0105 C   0  0  2  0  0  0  0  0  0  0  0  0
   -0.2192    3.9682    2.4758 H   0  0  0  0  0  0  0  0  0  0  0  0
   -1.9604    2.7400    2.6261 C   0  0  1  0  0  0  0  0  0  0  0  0
   -1.8471    2.7089    3.7161 H   0  0  0  0  0  0  0  0  0  0  0  0
   -2.9216    3.8922    2.2363 C   0  0  1  0  0  0  0  0  0  0  0  0
   -3.9325    3.6315    2.5733 H   0  0  0  0  0  0  0  0  0  0  0  0
   -2.6077    5.1299    2.8822 O   0  0  0  0  0  0  0  0  0  0  0  0
   -2.9429    4.1135    0.7140 C   0  0  2  0  0  0  0  0  0  0  0  0
   -3.5389    4.9986    0.4677 H   0  0  0  0  0  0  0  0  0  0  0  0
   -3.5813    3.0018    0.0633 O   0  0  0  0  0  0  0  0  0  0  0  0
   -1.5149    4.2647    0.1458 C   0  0  2  0  0  0  0  0  0  0  0  0
   -1.5790    4.1241   -0.9416 H   0  0  0  0  0  0  0  0  0  0  0  0
   -0.6444    3.1984    0.5902 O   0  0  0  0  0  0  0  0  0  0  0  0
   -0.8738    5.6603    0.3699 C   0  0  0  0  0  0  0  0  0  0  0  0
   -1.6137    6.7975   -0.1905 N   0  0  0  0  0  0  0  0  0  0  0  0
   -2.5099    1.4215    2.2230 N   0  0  0  0  0  0  0  0  0  0  0  0
    0.3694    2.0093    2.3954 O   0  0  0  0  0  0  0  0  0  0  0  0
    1.6697    2.0872    1.7758 C   0  0  2  0  0  0  0  0  0  0  0  0
    1.5273    2.0645    0.6881 H   0  0  0  0  0  0  0  0  0  0  0  0
    2.4915    0.8411    2.2160 C   0  0  2  0  0  0  0  0  0  0  0  0
    2.7153    0.9278    3.2879 H   0  0  0  0  0  0  0  0  0  0  0  0
    3.7971    0.7926    1.4283 C   0  0  0  0  0  0  0  0  0  0  0  0
    4.6617    2.0150    1.7356 C   0  0  1  0  0  0  0  0  0  0  0  0
    4.9780    1.9504    2.7850 H   0  0  0  0  0  0  0  0  0  0  0  0
    5.9236    1.9450    0.9849 N   0  0  0  0  0  0  0  0  0  0  0  0
    6.0411    1.9814   -0.3938 C   0  0  0  0  0  0  0  0  0  0  0  0
    5.0764    2.0385   -1.1492 O   0  0  0  0  0  0  0  0  0  0  0  0
    7.4848    2.0590   -0.9145 C   0  0  1  0  0  0  0  0  0  0  0  0
    7.8922    3.0141   -0.5650 H   0  0  0  0  0  0  0  0  0  0  0  0
    8.3183    0.8823   -0.4122 C   0  0  0  0  0  0  0  0  0  0  0  0
    9.7686    0.8998   -0.8779 C   0  0  0  0  0  0  0  0  0  0  0  0
   10.4889    2.0653   -0.3691 N   0  0  0  0  0  0  0  0  0  0  0  0
    7.5078    2.0892   -2.3406 O   0  0  0  0  0  0  0  0  0  0  0  0
    3.9104    3.3580    1.5666 C   0  0  1  0  0  0  0  0  0  0  0  0
    3.7847    3.6065    0.5092 H   0  0  0  0  0  0  0  0  0  0  0  0
    2.4835    3.3394    2.1829 C   0  0  1  0  0  0  0  0  0  0  0  0
    2.5379    3.3938    3.2789 H   0  0  0  0  0  0  0  0  0  0  0  0
    1.8089    4.5434    1.7858 O   0  0  0  0  0  0  0  0  0  0  0  0
    4.6158    4.4257    2.2378 O   0  0  0  0  0  0  0  0  0  0  0  0
    5.8165    4.9099    1.6352 C   0  0  0  0  0  0  0  0  0  0  0  0
    5.6826    5.3717    0.1748 C   0  0  0  0  0  0  0  0  0  0  0  0
    4.7888    6.5224    0.1172 N   0  0  0  0  0  0  0  0  0  0  0  0
    4.4822    6.9182   -1.2596 C   0  0  0  0  0  0  0  0  0  0  0  0
    3.6579    8.2177   -1.2439 C   0  0  0  0  0  0  0  0  0  0  0  0
    4.3222    9.2773   -0.4694 N   0  0  0  0  0  0  0  0  0  0  0  0
    1.7862   -0.4363    2.0527 N   0  0  0  0  0  0  0  0  0  0  0  0
   -1.9437    4.9875    3.5803 H   0  0  0  0  0  0  0  0  0  0  0  0
   -4.5117    2.9911    0.3547 H   0  0  0  0  0  0  0  0  0  0  0  0
   -0.6906    5.8552    1.4322 H   0  0  0  0  0  0  0  0  0  0  0  0
    0.1173    5.6592   -0.0947 H   0  0  0  0  0  0  0  0  0  0  0  0
   -2.4794    6.9420    0.3313 H   0  0  0  0  0  0  0  0  0  0  0  0
   -1.8700    6.6081   -1.1569 H   0  0  0  0  0  0  0  0  0  0  0  0
   -2.5630    1.4138    1.1965 H   0  0  0  0  0  0  0  0  0  0  0  0
   -3.4689    1.3267    2.5498 H   0  0  0  0  0  0  0  0  0  0  0  0
    3.5746    0.7347    0.3559 H   0  0  0  0  0  0  0  0  0  0  0  0
    4.3674   -0.1149    1.6711 H   0  0  0  0  0  0  0  0  0  0  0  0
    6.7715    1.9797    1.5405 H   0  0  0  0  0  0  0  0  0  0  0  0
    7.8573   -0.0502   -0.7619 H   0  0  0  0  0  0  0  0  0  0  0  0
    8.3014    0.8407    0.6837 H   0  0  0  0  0  0  0  0  0  0  0  0
    9.8357    0.8669   -1.9681 H   0  0  0  0  0  0  0  0  0  0  0  0
   10.2605   -0.0033   -0.4952 H   0  0  0  0  0  0  0  0  0  0  0  0
   10.1887    2.8888   -0.8902 H   0  0  0  0  0  0  0  0  0  0  0  0
   11.4772    1.9591   -0.6064 H   0  0  0  0  0  0  0  0  0  0  0  0
    6.5980    2.3147   -2.6253 H   0  0  0  0  0  0  0  0  0  0  0  0
    1.8285    4.5829    0.8139 H   0  0  0  0  0  0  0  0  0  0  0  0
    6.6114    4.1682    1.7392 H   0  0  0  0  0  0  0  0  0  0  0  0
    6.1437    5.7589    2.2479 H   0  0  0  0  0  0  0  0  0  0  0  0
    5.2934    4.5759   -0.4611 H   0  0  0  0  0  0  0  0  0  0  0  0
    6.6731    5.6376   -0.2112 H   0  0  0  0  0  0  0  0  0  0  0  0
    5.2503    7.3097    0.5738 H   0  0  0  0  0  0  0  0  0  0  0  0
    3.9061    6.1318   -1.7617 H   0  0  0  0  0  0  0  0  0  0  0  0
    5.4057    7.0822   -1.8268 H   0  0  0  0  0  0  0  0  0  0  0  0
    2.6751    8.0246   -0.7980 H   0  0  0  0  0  0  0  0  0  0  0  0
    3.5048    8.5610   -2.2699 H   0  0  0  0  0  0  0  0  0  0  0  0
    4.2998    9.0042    0.5143 H   0  0  0  0  0  0  0  0  0  0  0  0
    3.7468   10.1178   -0.5183 H   0  0  0  0  0  0  0  0  0  0  0  0
    0.8445   -0.3118    2.4394 H   0  0  0  0  0  0  0  0  0  0  0  0
    1.6391   -0.6317    1.0637 H   0  0  0  0  0  0  0  0  0  0  0  0
  1  3  1  1  0  0  0
  1 13  1  0  0  0  0
  1 17  1  0  0  0  0
  1  2  1  0  0  0  0
  3  5  1  6  0  0  0
  3 16  1  0  0  0  0
  3  4  1  0  0  0  0
  5  8  1  6  0  0  0
  5  7  1  0  0  0  0
  5  6  1  0  0  0  0
  7 47  1  0  0  0  0
  8  9  1  0  0  0  0
  8 10  1  0  0  0  0
  8 11  1  6  0  0  0
 10 48  1  0  0  0  0
 11 13  1  0  0  0  0
 11 14  1  0  0  0  0
 11 12  1  6  0  0  0
 14 15  1  0  0  0  0
 14 49  1  0  0  0  0
 14 50  1  0  0  0  0
 15 51  1  0  0  0  0
 15 52  1  0  0  0  0
 16 53  1  0  0  0  0
 16 54  1  0  0  0  0
 18 20  1  1  0  0  0
 18 36  1  0  0  0  0
 18 19  1  0  0  0  0
 18 17  1  0  0  0  0
 20 21  1  1  0  0  0
 20 22  1  0  0  0  0
 20 46  1  0  0  0  0
 22 23  1  0  0  0  0
 22 55  1  0  0  0  0
 22 56  1  0  0  0  0
 23 25  1  0  0  0  0
 23 24  1  1  0  0  0
 25 26  1  0  0  0  0
 25 57  1  0  0  0  0
 26 27  2  0  0  0  0
 26 28  1  0  0  0  0
 28 29  1  1  0  0  0
 28 30  1  0  0  0  0
 28 33  1  0  0  0  0
 30 31  1  0  0  0  0
 30 58  1  0  0  0  0
 30 59  1  0  0  0  0
 31 32  1  0  0  0  0
 31 60  1  0  0  0  0
 31 61  1  0  0  0  0
 32 62  1  0  0  0  0
 32 63  1  0  0  0  0
 33 64  1  0  0  0  0
 34 23  1  1  0  0  0
 34 35  1  0  0  0  0
 34 39  1  0  0  0  0
 36 34  1  6  0  0  0
 36 38  1  0  0  0  0
 36 37  1  0  0  0  0
 38 65  1  0  0  0  0
 39 40  1  0  0  0  0
 40 41  1  0  0  0  0
 40 66  1  0  0  0  0
 40 67  1  0  0  0  0
 41 42  1  0  0  0  0
 41 68  1  0  0  0  0
 41 69  1  0  0  0  0
 42 43  1  0  0  0  0
 42 70  1  0  0  0  0
 43 44  1  0  0  0  0
 43 71  1  0  0  0  0
 43 72  1  0  0  0  0
 44 45  1  0  0  0  0
 44 73  1  0  0  0  0
 44 74  1  0  0  0  0
 45 75  1  0  0  0  0
 45 76  1  0  0  0  0
 46 77  1  0  0  0  0
 46 78  1  0  0  0  0
M  END
$$$$
