REMARK  22 active torsions:
REMARK  status: ('A' for Active; 'I' for Inactive)
REMARK    1  A    between atoms: C_1  and  O_12 
REMARK    2  A    between atoms: C_2  and  N_11 
REMARK    3  A    between atoms: C_3  and  O_4 
REMARK    4  A    between atoms: C_5  and  O_6 
REMARK    5  A    between atoms: C_7  and  C_9 
REMARK    6  A    between atoms: C_9  and  N_10 
REMARK    7  A    between atoms: C_13  and  O_12 
REMARK    8  A    between atoms: C_14  and  N_35 
REMARK    9  A    between atoms: C_16  and  N_17 
REMARK       I    between atoms: N_17  and  C_18 
REMARK   10  A    between atoms: C_18  and  C_20 
REMARK   11  A    between atoms: C_20  and  C_21 
REMARK   12  A    between atoms: C_20  and  O_24 
REMARK   13  A    between atoms: C_21  and  C_22 
REMARK   14  A    between atoms: C_22  and  N_23 
REMARK   15  A    between atoms: C_25  and  O_28 
REMARK   16  A    between atoms: C_26  and  O_27 
REMARK   17  A    between atoms: O_28  and  C_29 
REMARK   18  A    between atoms: C_29  and  C_30 
REMARK   19  A    between atoms: C_30  and  N_31 
REMARK   20  A    between atoms: N_31  and  C_32 
REMARK   21  A    between atoms: C_32  and  C_33 
REMARK   22  A    between atoms: C_33  and  N_34 
ROOT
ATOM      1  C   UNL d   1       1.670   2.087   1.776  0.00  0.00     0.189 C 
ATOM      2  C   UNL d   1       2.491   0.841   2.216  0.00  0.00     0.251 C 
ATOM      3  C   UNL d   1       3.797   0.793   1.428  0.00  0.00     0.066 C 
ATOM      4  C   UNL d   1       4.662   2.015   1.736  0.00  0.00     0.118 C 
ATOM      5  C   UNL d   1       3.910   3.358   1.567  0.00  0.00     0.175 C 
ATOM      6  C   UNL d   1       2.483   3.339   2.183  0.00  0.00     0.180 C 
ENDROOT
BRANCH   1   7
ATOM      7  O   UNL d   1       0.369   2.009   2.395  0.00  0.00    -0.349 OA
BRANCH   7   8
ATOM      8  C   UNL d   1      -0.557   3.042   2.010  0.00  0.00     0.296 C 
ATOM      9  C   UNL d   1      -1.960   2.740   2.626  0.00  0.00     0.303 C 
ATOM     10  C   UNL d   1      -2.922   3.892   2.236  0.00  0.00     0.187 C 
ATOM     11  C   UNL d   1      -2.943   4.114   0.714  0.00  0.00     0.179 C 
ATOM     12  C   UNL d   1      -1.515   4.265   0.146  0.00  0.00     0.183 C 
ATOM     13  O   UNL d   1      -0.644   3.198   0.590  0.00  0.00    -0.349 OA
BRANCH   9  14
ATOM     14  N   UNL d   1      -2.510   1.421   2.223  0.00  0.00     0.090 N 
ATOM     15  H   UNL d   1      -2.563   1.414   1.196  0.00  0.00     0.313 HD
ATOM     16  H   UNL d   1      -3.469   1.327   2.550  0.00  0.00     0.313 HD
ENDBRANCH   9  14
BRANCH  10  17
ATOM     17  O   UNL d   1      -2.608   5.130   2.882  0.00  0.00    -0.391 OA
ATOM     18  H   UNL d   1      -1.944   4.987   3.580  0.00  0.00     0.210 HD
ENDBRANCH  10  17
BRANCH  11  19
ATOM     19  O   UNL d   1      -3.581   3.002   0.063  0.00  0.00    -0.390 OA
ATOM     20  H   UNL d   1      -4.512   2.991   0.355  0.00  0.00     0.210 HD
ENDBRANCH  11  19
BRANCH  12  21
ATOM     21  C   UNL d   1      -0.874   5.660   0.370  0.00  0.00     0.301 C 
BRANCH  21  22
ATOM     22  N   UNL d   1      -1.614   6.798  -0.191  0.00  0.00     0.080 N 
ATOM     23  H   UNL d   1      -2.479   6.942   0.331  0.00  0.00     0.312 HD
ATOM     24  H   UNL d   1      -1.870   6.608  -1.157  0.00  0.00     0.312 HD
ENDBRANCH  21  22
ENDBRANCH  12  21
ENDBRANCH   7   8
ENDBRANCH   1   7
BRANCH   2  25
ATOM     25  N   UNL d   1       1.786  -0.436   2.053  0.00  0.00     0.085 N 
ATOM     26  H   UNL d   1       0.845  -0.312   2.439  0.00  0.00     0.313 HD
ATOM     27  H   UNL d   1       1.639  -0.632   1.064  0.00  0.00     0.313 HD
ENDBRANCH   2  25
BRANCH   6  28
ATOM     28  O   UNL d   1       1.809   4.543   1.786  0.00  0.00    -0.390 OA
ATOM     29  H   UNL d   1       1.829   4.583   0.814  0.00  0.00     0.210 HD
ENDBRANCH   6  28
BRANCH   5  30
ATOM     30  O   UNL d   1       4.616   4.426   2.238  0.00  0.00    -0.379 OA
BRANCH  30  31
ATOM     31  C   UNL d   1       5.816   4.910   1.635  0.00  0.00     0.198 C 
BRANCH  31  32
ATOM     32  C   UNL d   1       5.683   5.372   0.175  0.00  0.00     0.295 C 
BRANCH  32  33
ATOM     33  N   UNL d   1       4.789   6.522   0.117  0.00  0.00     0.087 N 
ATOM     34  H   UNL d   1       5.250   7.310   0.574  0.00  0.00     0.316 HD
BRANCH  33  35
ATOM     35  C   UNL d   1       4.482   6.918  -1.260  0.00  0.00     0.299 C 
BRANCH  35  36
ATOM     36  C   UNL d   1       3.658   8.218  -1.244  0.00  0.00     0.296 C 
BRANCH  36  37
ATOM     37  N   UNL d   1       4.322   9.277  -0.469  0.00  0.00     0.080 N 
ATOM     38  H   UNL d   1       4.300   9.004   0.514  0.00  0.00     0.312 HD
ATOM     39  H   UNL d   1       3.747  10.118  -0.518  0.00  0.00     0.312 HD
ENDBRANCH  36  37
ENDBRANCH  35  36
ENDBRANCH  33  35
ENDBRANCH  32  33
ENDBRANCH  31  32
ENDBRANCH  30  31
ENDBRANCH   5  30
BRANCH   4  40
ATOM     40  N   UNL d   1       5.924   1.945   0.985  0.00  0.00    -0.352 N 
ATOM     41  C   UNL d   1       6.041   1.981  -0.394  0.00  0.00     0.246 C 
ATOM     42  O   UNL d   1       5.076   2.038  -1.149  0.00  0.00    -0.271 OA
ATOM     43  H   UNL d   1       6.771   1.980   1.540  0.00  0.00     0.163 HD
BRANCH  41  44
ATOM     44  C   UNL d   1       7.485   2.059  -0.914  0.00  0.00     0.211 C 
BRANCH  44  45
ATOM     45  C   UNL d   1       8.318   0.882  -0.412  0.00  0.00     0.071 C 
BRANCH  45  46
ATOM     46  C   UNL d   1       9.769   0.900  -0.878  0.00  0.00     0.269 C 
BRANCH  46  47
ATOM     47  N   UNL d   1      10.489   2.065  -0.369  0.00  0.00     0.078 N 
ATOM     48  H   UNL d   1      10.189   2.889  -0.890  0.00  0.00     0.312 HD
ATOM     49  H   UNL d   1      11.477   1.959  -0.606  0.00  0.00     0.312 HD
ENDBRANCH  46  47
ENDBRANCH  45  46
ENDBRANCH  44  45
BRANCH  44  50
ATOM     50  O   UNL d   1       7.508   2.089  -2.341  0.00  0.00    -0.386 OA
ATOM     51  H   UNL d   1       6.598   2.315  -2.625  0.00  0.00     0.210 HD
ENDBRANCH  44  50
ENDBRANCH  41  44
ENDBRANCH   4  40
TORSDOF 22
