@<TRIPOS>MOLECULE
3E5E_SAH_A_220
 46 48 0 0 0
SMALL
GASTEIGER

@<TRIPOS>ATOM
      1 N1          0.1681   -1.9256   -4.4149 N.3     1  <1>        -0.3184
      2 C1          1.1494   -1.1505   -5.1725 C.3     1  <1>         0.1040
      3 H1          0.6404   -0.7702   -6.0661 H       1  <1>         0.0574
      4 C2          1.7551    0.0463   -4.4084 C.3     1  <1>        -0.0183
      5 C3          1.1590    0.2868   -3.0229 C.3     1  <1>        -0.0043
      6 S1          2.0135    1.6339   -2.1560 S.3     1  <1>        -0.1580
      7 C4          1.0770    1.6008   -0.5836 C.3     1  <1>         0.0226
      8 C5         -0.2729    2.3049   -0.7323 C.3     1  <1>         0.0986
      9 H2         -0.2171    3.1029   -1.4860 H       1  <1>         0.0632
     10 O1         -1.2812    1.3534   -1.1410 O.3     1  <1>        -0.3471
     11 C6         -2.5700    1.8054   -0.6520 C.3     1  <1>         0.1666
     12 H3         -3.1970    2.0663   -1.5144 H       1  <1>         0.0866
     13 C7         -2.3033    3.0199    0.2283 C.3     1  <1>         0.1285
     14 H4         -2.9546    3.1085    1.1003 H       1  <1>         0.0665
     15 C8         -0.8317    2.8524    0.5713 C.3     1  <1>         0.1121
     16 H5         -0.6824    2.1284    1.3812 H       1  <1>         0.0647
     17 O2         -0.2146    4.0800    0.9113 O.3     1  <1>        -0.3865
     18 O3         -2.4715    4.2013   -0.5549 O.3     1  <1>        -0.3847
     19 N2         -3.2524    0.6747   -0.0084 N.ar    1  <1>        -0.2855
     20 C9         -3.6581   -0.4268   -0.7382 C.ar    1  <1>         0.1004
     21 N3         -4.0867   -1.3924    0.0448 N.ar    1  <1>        -0.2306
     22 C10        -3.5960   -1.0701    1.2865 C.ar    1  <1>         0.1473
     23 C11        -3.6302   -1.7514    2.5172 C.ar    1  <1>         0.1472
     24 N4         -4.2184   -3.0169    2.6511 N.pl3   1  <1>        -0.3413
     25 N5         -2.9388   -1.1871    3.5510 N.ar    1  <1>        -0.2188
     26 C12        -2.5021    0.0831    3.4039 C.ar    1  <1>         0.1205
     27 N6         -2.7633    0.9121    2.3797 N.ar    1  <1>        -0.2159
     28 C13        -3.0137    0.1939    1.2656 C.ar    1  <1>         0.1674
     29 C14         2.2445   -2.0725   -5.6674 C.2     1  <1>         0.3217
     30 O4          2.8967   -1.8652   -6.6823 O.2     1  <1>        -0.2493
     31 O5          2.4500   -3.1417   -4.8599 O.3     1  <1>        -0.4795
     32 H6         -0.1556   -2.7152   -4.9708 H       1  <1>         0.1190
     33 H7          0.6234   -2.3354   -3.5989 H       1  <1>         0.1190
     34 H8          2.8444   -0.0701   -4.3231 H       1  <1>         0.0293
     35 H9          1.5940    0.9450   -5.0203 H       1  <1>         0.0293
     36 H10         1.2522   -0.6038   -2.3956 H       1  <1>         0.0377
     37 H11         0.1018    0.5473   -3.1219 H       1  <1>         0.0377
     38 H12         0.9637    0.5651   -0.2391 H       1  <1>         0.0402
     39 H13         1.7021    2.1132    0.1509 H       1  <1>         0.0402
     40 H14         0.1361    3.9877    1.8128 H       1  <1>         0.2100
     41 H15        -3.3939    4.2302   -0.8610 H       1  <1>         0.2101
     42 H16        -3.8568   -0.3542   -1.7978 H       1  <1>         0.1030
     43 H17        -3.9355   -3.6408    1.8998 H       1  <1>         0.1438
     44 H18        -5.2322   -2.9473    2.6828 H       1  <1>         0.1438
     45 H19        -2.0178    0.5196    4.2671 H       1  <1>         0.1048
     46 H20         2.1250   -3.9723   -5.2701 H       1  <1>         0.2951
@<TRIPOS>BOND
     1     2     1    1
     2     2     3    1
     3     4     2    1
     4     5     4    1
     5     6     5    1
     6     7     6    1
     7     8     7    1
     8     8     9    1
     9    10     8    1
    10    11    10    1
    11    11    12    1
    12    13    11    1
    13    13    14    1
    14    15    13    1
    15    15    16    1
    16    15     8    1
    17    17    15    1
    18    18    13    1
    19    19    11    1
    20    20    19   ar
    21    21    20   ar
    22    22    21   ar
    23    23    22   ar
    24    24    23    1
    25    25    23   ar
    26    26    25   ar
    27    27    26   ar
    28    28    27   ar
    29    28    19   ar
    30    28    22   ar
    31    29     2    1
    32    30    29    2
    33    31    29    1
    34     1    32    1
    35     1    33    1
    36     4    34    1
    37     4    35    1
    38     5    36    1
    39     5    37    1
    40     7    38    1
    41     7    39    1
    42    17    40    1
    43    18    41    1
    44    20    42    1
    45    24    43    1
    46    24    44    1
    47    26    45    1
    48    31    46    1
