REMARK  12 active torsions:
REMARK  status: ('A' for Active; 'I' for Inactive)
REMARK    1  A    between atoms: C1_2  and  N1_1 
REMARK    2  A    between atoms: C2_3  and  C1_2 
REMARK    3  A    between atoms: C14_24  and  C1_2 
REMARK    4  A    between atoms: C3_4  and  C2_3 
REMARK    5  A    between atoms: S1_5  and  C3_4 
REMARK    6  A    between atoms: C4_6  and  S1_5 
REMARK    7  A    between atoms: C5_7  and  C4_6 
REMARK    8  A    between atoms: N2_14  and  C6_9 
REMARK    9  A    between atoms: O3_13  and  C7_10 
REMARK   10  A    between atoms: O2_12  and  C8_11 
REMARK   11  A    between atoms: N4_19  and  C11_18 
REMARK   12  A    between atoms: O5_26  and  C14_24 
ROOT
ATOM      1  C5  <1> d          -0.273   2.305  -0.732  0.00  0.00     0.165 C 
ATOM      2  O1  <1> d          -1.281   1.353  -1.141  0.00  0.00    -0.355 OA
ATOM      3  C6  <1> d          -2.570   1.805  -0.652  0.00  0.00     0.262 C 
ATOM      4  C7  <1> d          -2.303   3.020   0.228  0.00  0.00     0.198 C 
ATOM      5  C8  <1> d          -0.832   2.852   0.571  0.00  0.00     0.180 C 
ENDROOT
BRANCH   1   6
ATOM      6  C4  <1> d           1.077   1.601  -0.584  0.00  0.00     0.108 C 
BRANCH   6   7
ATOM      7  S1  <1> d           2.014   1.634  -2.156  0.00  0.00    -0.166 SA
BRANCH   7   8
ATOM      8  C3  <1> d           1.159   0.287  -3.023  0.00  0.00     0.076 C 
BRANCH   8   9
ATOM      9  C2  <1> d           1.755   0.046  -4.408  0.00  0.00     0.056 C 
BRANCH   9  10
ATOM     10  C1  <1> d           1.149  -1.151  -5.173  0.00  0.00     0.315 C 
BRANCH  10  11
ATOM     11  N1  <1> d           0.168  -1.926  -4.415  0.00  0.00     0.093 N 
ATOM     12  H6  <1> d          -0.156  -2.715  -4.971  0.00  0.00     0.314 HD
ATOM     13  H7  <1> d           0.623  -2.335  -3.599  0.00  0.00     0.314 HD
ENDBRANCH  10  11
BRANCH  10  14
ATOM     14  C14 <1> d           2.244  -2.072  -5.667  0.00  0.00     0.173 C 
ATOM     15  O4  <1> d           2.897  -1.865  -6.682  0.00  0.00    -0.648 OA
BRANCH  14  16
ATOM     16  O5  <1> d           2.450  -3.142  -4.860  0.00  0.00    -0.775 OA
ATOM     17  H20 <1> d           2.125  -3.972  -5.270  0.00  0.00     0.167 HD
ENDBRANCH  14  16
ENDBRANCH  10  14
ENDBRANCH   9  10
ENDBRANCH   8   9
ENDBRANCH   7   8
ENDBRANCH   6   7
ENDBRANCH   1   6
BRANCH   5  18
ATOM     18  O2  <1> d          -0.215   4.080   0.911  0.00  0.00    -0.390 OA
ATOM     19  H14 <1> d           0.136   3.988   1.813  0.00  0.00     0.210 HD
ENDBRANCH   5  18
BRANCH   3  20
ATOM     20  N2  <1> d          -3.252   0.675  -0.008  0.00  0.00    -0.294 N 
ATOM     21  C9  <1> d          -3.658  -0.427  -0.738  0.00  0.00     0.214 C 
ATOM     22  N3  <1> d          -4.087  -1.392   0.045  0.00  0.00    -0.236 NA
ATOM     23  C10 <1> d          -3.596  -1.070   1.286  0.00  0.00     0.144 C 
ATOM     24  C11 <1> d          -3.630  -1.751   2.517  0.00  0.00     0.135 C 
ATOM     25  C13 <1> d          -3.014   0.194   1.266  0.00  0.00     0.166 C 
ATOM     26  N5  <1> d          -2.939  -1.187   3.551  0.00  0.00    -0.228 NA
ATOM     27  C12 <1> d          -2.502   0.083   3.404  0.00  0.00     0.237 C 
ATOM     28  N6  <1> d          -2.763   0.912   2.380  0.00  0.00    -0.222 NA
BRANCH  24  29
ATOM     29  N4  <1> d          -4.218  -3.017   2.651  0.00  0.00    -0.285 NA
ATOM     30  H17 <1> d          -3.936  -3.641   1.900  0.00  0.00     0.125 HD
ATOM     31  H18 <1> d          -5.232  -2.947   2.683  0.00  0.00     0.125 HD
ENDBRANCH  24  29
ENDBRANCH   3  20
BRANCH   4  32
ATOM     32  O3  <1> d          -2.471   4.201  -0.555  0.00  0.00    -0.388 OA
ATOM     33  H15 <1> d          -3.394   4.230  -0.861  0.00  0.00     0.210 HD
ENDBRANCH   4  32
TORSDOF 12
