REMARK  12 active torsions:
REMARK  status: ('A' for Active; 'I' for Inactive)
REMARK    1  A    between atoms: CA_2  and  N_1 
REMARK    2  A    between atoms: C_3  and  CA_2 
REMARK    3  A    between atoms: C_6  and  CA_2 
REMARK    4  A    between atoms: OXT_5  and  C_3 
REMARK    5  A    between atoms: C_7  and  C_6 
REMARK    6  A    between atoms: S_8  and  C_7 
REMARK    7  A    between atoms: C_11  and  S_8 
REMARK    8  A    between atoms: C_12  and  C_11 
REMARK    9  A    between atoms: N_19  and  C_14 
REMARK   10  A    between atoms: O_18  and  C_15 
REMARK   11  A    between atoms: O_17  and  C_16 
REMARK   12  A    between atoms: N_24  and  C_23 
ROOT
ATOM      1  C   UNL d   1       1.943   0.926  -1.817  0.00  0.00     0.163 C 
ATOM      2  O   UNL d   1       1.037  -0.165  -2.070  0.00  0.00    -0.355 OA
ATOM      3  C   UNL d   1       0.621  -0.120  -3.442  0.00  0.00     0.262 C 
ATOM      4  C   UNL d   1       0.753   1.336  -3.855  0.00  0.00     0.198 C 
ATOM      5  C   UNL d   1       1.953   1.816  -3.061  0.00  0.00     0.180 C 
ENDROOT
BRANCH   1   6
ATOM      6  C   UNL d   1       1.473   1.647  -0.561  0.00  0.00     0.086 C 
BRANCH   6   7
ATOM      7  S   UNL d   1       1.776   0.592   0.876  0.00  0.00    -0.264 SA
ATOM      8  H   UNL d   1       1.707  -0.682   0.460  0.00  0.00     0.081 HD
ATOM      9  C   UNL d   1       3.417   0.854   1.551  0.00  0.00     0.066 C 
BRANCH   7  10
ATOM     10  C   UNL d   1       0.532   0.736   2.181  0.00  0.00     0.054 C 
BRANCH  10  11
ATOM     11  C   UNL d   1       0.066   2.161   2.466  0.00  0.00     0.055 C 
BRANCH  11  12
ATOM     12  CA  UNL d   1      -1.214   2.174   3.327  0.00  0.00     0.315 C 
BRANCH  12  13
ATOM     13  N   UNL d   1      -1.548   3.534   3.742  0.00  0.00     0.093 N 
ATOM     14  H1  UNL d   1      -2.289   3.515   4.444  0.00  0.00     0.314 HD
ATOM     15  H2  UNL d   1      -1.916   4.066   2.954  0.00  0.00     0.314 HD
ENDBRANCH  12  13
BRANCH  12  16
ATOM     16  C   UNL d   1      -1.076   1.335   4.587  0.00  0.00     0.173 C 
ATOM     17  O   UNL d   1      -1.792   0.376   4.858  0.00  0.00    -0.648 OA
BRANCH  16  18
ATOM     18  OXT UNL d   1      -0.033   1.753   5.354  0.00  0.00    -0.775 OA
ATOM     19  HXT UNL d   1      -0.033   1.342   6.243  0.00  0.00     0.167 HD
ENDBRANCH  16  18
ENDBRANCH  12  16
ENDBRANCH  11  12
ENDBRANCH  10  11
ENDBRANCH   7  10
ENDBRANCH   6   7
ENDBRANCH   1   6
BRANCH   5  20
ATOM     20  O   UNL d   1       3.166   1.615  -3.774  0.00  0.00    -0.390 OA
ATOM     21  H   UNL d   1       3.266   0.666  -3.961  0.00  0.00     0.210 HD
ENDBRANCH   5  20
BRANCH   3  22
ATOM     22  N   UNL d   1      -0.755  -0.605  -3.575  0.00  0.00    -0.294 N 
ATOM     23  C   UNL d   1      -1.153  -1.297  -4.706  0.00  0.00     0.214 C 
ATOM     24  N   UNL d   1      -2.299  -1.920  -4.523  0.00  0.00    -0.236 NA
ATOM     25  C   UNL d   1      -2.523  -1.851  -3.172  0.00  0.00     0.144 C 
ATOM     26  C   UNL d   1      -3.562  -2.357  -2.370  0.00  0.00     0.135 C 
ATOM     27  C   UNL d   1      -1.551  -1.075  -2.546  0.00  0.00     0.166 C 
ATOM     28  N   UNL d   1      -3.456  -2.158  -1.026  0.00  0.00    -0.228 NA
ATOM     29  C   UNL d   1      -2.500  -1.319  -0.571  0.00  0.00     0.237 C 
ATOM     30  N   UNL d   1      -1.665  -0.558  -1.308  0.00  0.00    -0.222 NA
BRANCH  26  31
ATOM     31  N   UNL d   1      -4.586  -3.159  -2.893  0.00  0.00    -0.285 NA
ATOM     32  H   UNL d   1      -4.809  -2.921  -3.856  0.00  0.00     0.125 HD
ATOM     33  H   UNL d   1      -4.337  -4.143  -2.824  0.00  0.00     0.125 HD
ENDBRANCH  26  31
ENDBRANCH   3  22
BRANCH   4  34
ATOM     34  O   UNL d   1       0.920   1.497  -5.248  0.00  0.00    -0.388 OA
ATOM     35  H   UNL d   1       1.164   2.423  -5.416  0.00  0.00     0.210 HD
ENDBRANCH   4  34
TORSDOF 12
