REMARK  4 active torsions:
REMARK  status: ('A' for Active; 'I' for Inactive)
REMARK    1  A    between atoms: N_7  and  C_20 
REMARK    2  A    between atoms: C_8  and  C_12 
REMARK    3  A    between atoms: C_12  and  N_13 
REMARK    4  A    between atoms: N_13  and  C_14 
ROOT
ATOM      1  N   UNL d   1       2.011   1.794   0.714  0.00  0.00    -0.055 NA
ATOM      2  C   UNL d   1       1.710   0.515   0.729  0.00  0.00     0.702 C 
ATOM      3  N   UNL d   1       1.766  -0.041   1.976  0.00  0.00    -0.156 N 
ATOM      4  C   UNL d   1       1.990   0.750   3.098  0.00  0.00     0.266 C 
ATOM      5  O   UNL d   1       1.571   0.423   4.207  0.00  0.00    -0.270 OA
ATOM      6  C   UNL d   1       2.907   2.001   2.862  0.00  0.00     0.244 C 
ATOM      7  N   UNL d   1       4.306   1.550   2.981  0.00  0.00    -0.332 N 
ATOM      8  C   UNL d   1       5.241   1.698   1.822  0.00  0.00     0.114 C 
ATOM      9  C   UNL d   1       5.101   3.127   1.233  0.00  0.00     0.120 C 
ATOM     10  N   UNL d   1       3.700   3.418   0.872  0.00  0.00    -0.276 NA
ATOM     11  C   UNL d   1       2.763   2.584   1.450  0.00  0.00     0.131 C 
ATOM     12  N   UNL d   1       1.558  -0.228  -0.385  0.00  0.00    -0.233 N 
ATOM     13  H   UNL d   1       1.431  -0.978   2.143  0.00  0.00     0.187 HD
ATOM     14  H   UNL d   1       3.606   3.545  -0.138  0.00  0.00     0.129 HD
ATOM     15  H   UNL d   1       1.543   0.192  -1.310  0.00  0.00     0.174 HD
ATOM     16  H   UNL d   1       1.620  -1.242  -0.360  0.00  0.00     0.174 HD
ENDROOT
BRANCH   8  17
ATOM     17  C   UNL d   1       5.041   0.577   0.757  0.00  0.00     0.119 C 
BRANCH  17  18
ATOM     18  N   UNL d   1       6.004   0.592  -0.356  0.00  0.00    -0.291 NA
ATOM     19  H   UNL d   1       5.508   0.477  -1.241  0.00  0.00     0.127 HD
BRANCH  18  20
ATOM     20  C   UNL d   1       7.023  -0.376  -0.281  0.00  0.00     0.008 A 
ATOM     21  C   UNL d   1       7.423  -1.044  -1.446  0.00  0.00     0.023 A 
ATOM     22  C   UNL d   1       8.470  -1.967  -1.421  0.00  0.00     0.002 A 
ATOM     23  C   UNL d   1       9.154  -2.208  -0.233  0.00  0.00     0.000 A 
ATOM     24  C   UNL d   1       8.787  -1.530   0.925  0.00  0.00     0.002 A 
ATOM     25  C   UNL d   1       7.733  -0.620   0.898  0.00  0.00     0.023 A 
ENDBRANCH  18  20
ENDBRANCH  17  18
ENDBRANCH   8  17
BRANCH   7  26
ATOM     26  C   UNL d   1       4.789   1.112   4.200  0.00  0.00     0.352 C 
ATOM     27  O   UNL d   1       5.939   0.734   4.413  0.00  0.00    -0.283 OA
ENDBRANCH   7  26
TORSDOF 4
