@<TRIPOS>MOLECULE
ligand.pdb
 39 41 0 0 0
SMALL
GASTEIGER

@<TRIPOS>ATOM
      1 N           2.0112    1.7945    0.7141 N.2     1  UNL1       -0.3613
      2 C           1.7101    0.5150    0.7287 C.2     1  UNL1        0.2388
      3 N           1.7658   -0.0405    1.9757 N.am    1  UNL1       -0.2461
      4 C           1.9901    0.7502    3.0983 C.2     1  UNL1        0.2489
      5 O           1.5715    0.4227    4.2073 O.2     1  UNL1       -0.2728
      6 C           2.9070    2.0013    2.8624 C.3     1  UNL1        0.1701
      7 H           2.7060    2.7664    3.6167 H       1  UNL1        0.0688
      8 N           4.3062    1.5496    2.9808 N.am    1  UNL1       -0.2793
      9 C           5.2413    1.6981    1.8222 C.3     1  UNL1        0.0578
     10 H           6.2670    1.6122    2.2019 H       1  UNL1        0.0532
     11 C           5.1011    3.1271    1.2330 C.3     1  UNL1        0.0312
     12 N           3.7000    3.4176    0.8721 N.pl3   1  UNL1       -0.3190
     13 C           2.7634    2.5838    1.4501 C.2     1  UNL1        0.1802
     14 C           5.0408    0.5766    0.7575 C.3     1  UNL1        0.0292
     15 N           6.0042    0.5917   -0.3560 N.pl3   1  UNL1       -0.3420
     16 C           7.0226   -0.3756   -0.2815 C.ar    1  UNL1        0.0272
     17 C           7.4227   -1.0444   -1.4463 C.ar    1  UNL1       -0.0409
     18 C           8.4696   -1.9671   -1.4205 C.ar    1  UNL1       -0.0600
     19 C           9.1541   -2.2076   -0.2325 C.ar    1  UNL1       -0.0616
     20 C           8.7875   -1.5295    0.9254 C.ar    1  UNL1       -0.0600
     21 C           7.7333   -0.6195    0.8982 C.ar    1  UNL1       -0.0409
     22 C           4.7891    1.1121    4.1998 C.2     1  UNL1        0.2038
     23 O           5.9386    0.7342    4.4127 O.2     1  UNL1       -0.2793
     24 N           1.5580   -0.2275   -0.3849 N.pl3   1  UNL1       -0.3207
     25 H           1.4313   -0.9778    2.1432 H       1  UNL1        0.1585
     26 H           5.7532    3.2623    0.3695 H       1  UNL1        0.0481
     27 H           5.4113    3.8457    2.0037 H       1  UNL1        0.0481
     28 H           3.6057    3.5451   -0.1376 H       1  UNL1        0.1482
     29 H           4.9633   -0.4130    1.2250 H       1  UNL1        0.0480
     30 H           4.0921    0.7125    0.2528 H       1  UNL1        0.0480
     31 H           5.5083    0.4774   -1.2412 H       1  UNL1        0.1461
     32 H           6.9075   -0.8678   -2.3894 H       1  UNL1        0.0636
     33 H           8.7537   -2.4933   -2.3278 H       1  UNL1        0.0618
     34 H           9.9760   -2.9159   -0.2081 H       1  UNL1        0.0618
     35 H           9.3231   -1.6981    1.8555 H       1  UNL1        0.0618
     36 H           7.4869   -0.1031    1.8198 H       1  UNL1        0.0636
     37 H           4.0223    1.0929    4.9860 H       1  UNL1        0.1254
     38 H           1.5433    0.1922   -1.3098 H       1  UNL1        0.1459
     39 H           1.6196   -1.2421   -0.3596 H       1  UNL1        0.1459
@<TRIPOS>BOND
     1     1     2    2
     2     1    13    2
     3     2     3    1
     4     2    24    1
     5     3     4   am
     6     3    25    1
     7     4     5    2
     8     4     6    1
     9     6     7    1
    10     6     8    1
    11     6    13    1
    12     8     9    1
    13     8    22   am
    14     9    11    1
    15     9    14    1
    16     9    10    1
    17    11    12    1
    18    11    26    1
    19    11    27    1
    20    12    13    1
    21    12    28    1
    22    14    15    1
    23    14    29    1
    24    14    30    1
    25    15    16    1
    26    15    31    1
    27    16    17   ar
    28    16    21   ar
    29    17    18   ar
    30    17    32    1
    31    18    19   ar
    32    18    33    1
    33    19    20   ar
    34    19    34    1
    35    20    21   ar
    36    20    35    1
    37    21    36    1
    38    22    23    2
    39    22    37    1
    40    24    38    1
    41    24    39    1
