@<TRIPOS>MOLECULE
ligands/ligand.pdb
 88 91 0 0 0
SMALL
GASTEIGER

@<TRIPOS>ATOM
      1 C          -0.6851   -1.1450    0.2665 C.3     1  UNL1        0.1135
      2 H          -0.8632   -1.2856   -0.8078 H       1  UNL1        0.0647
      3 O          -1.0917    0.2185    0.6155 O.3     1  UNL1       -0.3405
      4 C          -0.0540    1.0205    0.0433 C.3     1  UNL1        0.1884
      5 H          -0.2678    1.0070   -1.0261 H       1  UNL1        0.0938
      6 C           1.2406    0.2557    0.3512 C.3     1  UNL1        0.1345
      7 H           1.7734    0.6697    1.2146 H       1  UNL1        0.0671
      8 O           2.0942    0.2775   -0.7784 O.3     1  UNL1       -0.3841
      9 C           0.8040   -1.1928    0.6323 C.3     1  UNL1        0.1205
     10 H           0.8490   -1.3561    1.7162 H       1  UNL1        0.0651
     11 O           1.6429   -2.1915   -0.0230 O.3     1  UNL1       -0.3410
     12 C           2.9772   -2.1488    0.5376 C.3     1  UNL1        0.1776
     13 H           3.2672   -1.0976    0.5864 H       1  UNL1        0.0927
     14 O           2.8976   -2.5366    1.9120 O.3     1  UNL1       -0.3425
     15 C           3.1444   -3.9095    2.1803 C.3     1  UNL1        0.1022
     16 H           3.0279   -4.0265    3.2641 H       1  UNL1        0.0636
     17 C           4.6007   -4.1798    1.8268 C.3     1  UNL1        0.1100
     18 H           5.2494   -3.4456    2.3197 H       1  UNL1        0.0646
     19 C           4.7936   -4.0744    0.3133 C.3     1  UNL1        0.1033
     20 H           4.3580   -4.9488   -0.1828 H       1  UNL1        0.0637
     21 C           4.2127   -2.7606   -0.2650 C.3     1  UNL1        0.0853
     22 H           5.0113   -2.0226   -0.0936 H       1  UNL1        0.0535
     23 N           4.1452   -2.8313   -1.7476 N.3     1  UNL1       -0.3211
     24 O           6.2041   -4.1378    0.0160 O.3     1  UNL1       -0.3874
     25 O           5.0291   -5.4724    2.2611 O.3     1  UNL1       -0.3866
     26 C           2.1477   -4.8908    1.5075 C.3     1  UNL1        0.0222
     27 N           0.7741   -4.6921    1.9407 N.3     1  UNL1       -0.3276
     28 O          -0.0837    2.3808    0.5004 O.3     1  UNL1       -0.3402
     29 C           0.9033    3.2440   -0.1346 C.3     1  UNL1        0.1166
     30 H           1.8855    2.8033    0.0566 H       1  UNL1        0.0650
     31 C           0.6739    3.3732   -1.6726 C.3     1  UNL1        0.1055
     32 H           0.3682    2.4162   -2.0919 H       1  UNL1        0.0639
     33 C          -0.4796    4.3447   -2.0338 C.3     1  UNL1        0.0355
     34 H          -0.4164    4.5569   -3.1090 H       1  UNL1        0.0485
     35 C          -0.3377    5.6901   -1.3161 C.3     1  UNL1       -0.0175
     36 C          -0.2142    5.5877    0.2100 C.3     1  UNL1        0.0351
     37 H           0.0483    6.5949    0.5605 H       1  UNL1        0.0485
     38 N          -1.4806    5.2653    0.8752 N.3     1  UNL1       -0.3250
     39 C           0.9351    4.6230    0.5900 C.3     1  UNL1        0.0990
     40 H           0.9043    4.4532    1.6789 H       1  UNL1        0.0636
     41 O           2.1887    5.2763    0.3296 O.3     1  UNL1       -0.3876
     42 N          -1.8109    3.7637   -1.8024 N.3     1  UNL1       -0.3250
     43 O           1.8246    3.7604   -2.4390 O.3     1  UNL1       -0.3422
     44 C           2.8619    2.7726   -2.5218 C.3     1  UNL1        0.1776
     45 H           3.3116    2.6660   -1.5312 H       1  UNL1        0.0927
     46 O           2.4216    1.4820   -2.9340 O.3     1  UNL1       -0.3425
     47 C           1.8793    1.3605   -4.2503 C.3     1  UNL1        0.1022
     48 H           0.9224    1.9001   -4.3002 H       1  UNL1        0.0636
     49 C           2.8472    1.9203   -5.3073 C.3     1  UNL1        0.1100
     50 H           3.7029    1.2436   -5.4265 H       1  UNL1        0.0646
     51 C           3.3656    3.3077   -4.8925 C.3     1  UNL1        0.1033
     52 H           2.5465    4.0353   -4.9420 H       1  UNL1        0.0637
     53 C           3.9668    3.2572   -3.4786 C.3     1  UNL1        0.0853
     54 H           4.7894    2.5303   -3.4804 H       1  UNL1        0.0535
     55 N           4.5360    4.5582   -3.0641 N.3     1  UNL1       -0.3211
     56 O           4.3531    3.7460   -5.8358 O.3     1  UNL1       -0.3874
     57 O           2.2485    2.0621   -6.6057 O.3     1  UNL1       -0.3866
     58 C           1.6026   -0.1445   -4.5187 C.3     1  UNL1        0.0222
     59 N           0.6239   -0.7211   -3.5845 N.3     1  UNL1       -0.3276
     60 C          -1.5893   -2.0830    1.0597 C.3     1  UNL1        0.0730
     61 O          -2.9553   -1.7531    0.7994 O.3     1  UNL1       -0.3924
     62 H           2.8628    0.8390   -0.5922 H       1  UNL1        0.2101
     63 H           3.5702   -3.6281   -2.0217 H       1  UNL1        0.1187
     64 H           5.0877   -3.0742   -2.0749 H       1  UNL1        0.1187
     65 H           6.5727   -4.8134    0.6222 H       1  UNL1        0.2100
     66 H           4.7897   -5.5624    3.2019 H       1  UNL1        0.2100
     67 H           2.1569   -4.7783    0.4186 H       1  UNL1        0.0448
     68 H           2.4342   -5.9258    1.7256 H       1  UNL1        0.0448
     69 H           0.6052   -3.6886    1.9833 H       1  UNL1        0.1183
     70 H           0.6431   -5.0332    2.9046 H       1  UNL1        0.1183
     71 H          -1.1729    6.3508   -1.5853 H       1  UNL1        0.0297
     72 H           0.5607    6.1935   -1.7002 H       1  UNL1        0.0297
     73 H          -1.5796    4.2566    0.9949 H       1  UNL1        0.1185
     74 H          -2.2612    5.5550    0.2810 H       1  UNL1        0.1185
     75 H           2.1895    6.1152    0.8268 H       1  UNL1        0.2100
     76 H          -1.8610    3.3861   -0.8543 H       1  UNL1        0.1185
     77 H          -1.9326    2.9530   -2.4117 H       1  UNL1        0.1185
     78 H           3.7556    5.1852   -2.8538 H       1  UNL1        0.1187
     79 H           4.9973    4.9536   -3.8886 H       1  UNL1        0.1187
     80 H           3.9570    3.5602   -6.7112 H       1  UNL1        0.2100
     81 H           1.4469    1.5126   -6.6557 H       1  UNL1        0.2100
     82 H           2.5312   -0.7200   -4.4197 H       1  UNL1        0.0448
     83 H           1.2264   -0.2935   -5.5356 H       1  UNL1        0.0448
     84 H           1.0714   -0.7268   -2.6581 H       1  UNL1        0.1183
     85 H           0.4981   -1.7110   -3.8114 H       1  UNL1        0.1183
     86 H          -1.4331   -1.9628    2.1375 H       1  UNL1        0.0584
     87 H          -1.4217   -3.1289    0.7856 H       1  UNL1        0.0584
     88 H          -3.0074   -0.7785    0.8873 H       1  UNL1        0.2095
@<TRIPOS>BOND
     1     1     2    1
     2     1     3    1
     3     1     9    1
     4     1    60    1
     5     3     4    1
     6     4     6    1
     7     4    28    1
     8     4     5    1
     9     6     7    1
    10     6     8    1
    11     8    62    1
    12     9     6    1
    13     9    10    1
    14     9    11    1
    15    11    12    1
    16    12    13    1
    17    12    14    1
    18    12    21    1
    19    14    15    1
    20    15    17    1
    21    15    26    1
    22    15    16    1
    23    17    19    1
    24    17    25    1
    25    17    18    1
    26    19    20    1
    27    19    21    1
    28    19    24    1
    29    21    23    1
    30    21    22    1
    31    23    63    1
    32    23    64    1
    33    24    65    1
    34    25    66    1
    35    26    27    1
    36    26    67    1
    37    26    68    1
    38    27    69    1
    39    27    70    1
    40    28    29    1
    41    29    30    1
    42    29    31    1
    43    31    43    1
    44    31    32    1
    45    33    31    1
    46    33    35    1
    47    33    42    1
    48    33    34    1
    49    35    36    1
    50    35    71    1
    51    35    72    1
    52    36    39    1
    53    36    38    1
    54    36    37    1
    55    38    73    1
    56    38    74    1
    57    39    40    1
    58    39    29    1
    59    39    41    1
    60    41    75    1
    61    42    76    1
    62    42    77    1
    63    43    44    1
    64    44    45    1
    65    44    46    1
    66    44    53    1
    67    46    47    1
    68    47    48    1
    69    47    49    1
    70    47    58    1
    71    49    51    1
    72    49    57    1
    73    49    50    1
    74    51    52    1
    75    51    53    1
    76    51    56    1
    77    53    55    1
    78    53    54    1
    79    55    78    1
    80    55    79    1
    81    56    80    1
    82    57    81    1
    83    58    59    1
    84    58    82    1
    85    58    83    1
    86    59    84    1
    87    59    85    1
    88    60    61    1
    89    60    86    1
    90    60    87    1
    91    61    88    1
