ligands/ligand.pdb
 OpenBabel03221816523D

 88 91  0  0  1  0  0  0  0  0999 V2000
   -0.6851   -1.1450    0.2665 C   0  0  1  0  0  0  0  0  0  0  0  0
   -0.8632   -1.2856   -0.8078 H   0  0  0  0  0  0  0  0  0  0  0  0
   -1.0917    0.2185    0.6155 O   0  0  0  0  0  0  0  0  0  0  0  0
   -0.0540    1.0205    0.0433 C   0  0  2  0  0  0  0  0  0  0  0  0
   -0.2678    1.0070   -1.0261 H   0  0  0  0  0  0  0  0  0  0  0  0
    1.2406    0.2557    0.3512 C   0  0  2  0  0  0  0  0  0  0  0  0
    1.7734    0.6697    1.2146 H   0  0  0  0  0  0  0  0  0  0  0  0
    2.0942    0.2775   -0.7784 O   0  0  0  0  0  0  0  0  0  0  0  0
    0.8040   -1.1928    0.6323 C   0  0  2  0  0  0  0  0  0  0  0  0
    0.8490   -1.3561    1.7162 H   0  0  0  0  0  0  0  0  0  0  0  0
    1.6429   -2.1915   -0.0230 O   0  0  0  0  0  0  0  0  0  0  0  0
    2.9772   -2.1488    0.5376 C   0  0  1  0  0  0  0  0  0  0  0  0
    3.2672   -1.0976    0.5864 H   0  0  0  0  0  0  0  0  0  0  0  0
    2.8976   -2.5366    1.9120 O   0  0  0  0  0  0  0  0  0  0  0  0
    3.1444   -3.9095    2.1803 C   0  0  2  0  0  0  0  0  0  0  0  0
    3.0279   -4.0265    3.2641 H   0  0  0  0  0  0  0  0  0  0  0  0
    4.6007   -4.1798    1.8268 C   0  0  2  0  0  0  0  0  0  0  0  0
    5.2494   -3.4456    2.3197 H   0  0  0  0  0  0  0  0  0  0  0  0
    4.7936   -4.0744    0.3133 C   0  0  1  0  0  0  0  0  0  0  0  0
    4.3580   -4.9488   -0.1828 H   0  0  0  0  0  0  0  0  0  0  0  0
    4.2127   -2.7606   -0.2650 C   0  0  1  0  0  0  0  0  0  0  0  0
    5.0113   -2.0226   -0.0936 H   0  0  0  0  0  0  0  0  0  0  0  0
    4.1452   -2.8313   -1.7476 N   0  0  0  0  0  0  0  0  0  0  0  0
    6.2041   -4.1378    0.0160 O   0  0  0  0  0  0  0  0  0  0  0  0
    5.0291   -5.4724    2.2611 O   0  0  0  0  0  0  0  0  0  0  0  0
    2.1477   -4.8908    1.5075 C   0  0  0  0  0  0  0  0  0  0  0  0
    0.7741   -4.6921    1.9407 N   0  0  0  0  0  0  0  0  0  0  0  0
   -0.0837    2.3808    0.5004 O   0  0  0  0  0  0  0  0  0  0  0  0
    0.9033    3.2440   -0.1346 C   0  0  1  0  0  0  0  0  0  0  0  0
    1.8855    2.8033    0.0566 H   0  0  0  0  0  0  0  0  0  0  0  0
    0.6739    3.3732   -1.6726 C   0  0  1  0  0  0  0  0  0  0  0  0
    0.3682    2.4162   -2.0919 H   0  0  0  0  0  0  0  0  0  0  0  0
   -0.4796    4.3447   -2.0338 C   0  0  2  0  0  0  0  0  0  0  0  0
   -0.4164    4.5569   -3.1090 H   0  0  0  0  0  0  0  0  0  0  0  0
   -0.3377    5.6901   -1.3161 C   0  0  0  0  0  0  0  0  0  0  0  0
   -0.2142    5.5877    0.2100 C   0  0  1  0  0  0  0  0  0  0  0  0
    0.0483    6.5949    0.5605 H   0  0  0  0  0  0  0  0  0  0  0  0
   -1.4806    5.2653    0.8752 N   0  0  0  0  0  0  0  0  0  0  0  0
    0.9351    4.6230    0.5900 C   0  0  2  0  0  0  0  0  0  0  0  0
    0.9043    4.4532    1.6789 H   0  0  0  0  0  0  0  0  0  0  0  0
    2.1887    5.2763    0.3296 O   0  0  0  0  0  0  0  0  0  0  0  0
   -1.8109    3.7637   -1.8024 N   0  0  0  0  0  0  0  0  0  0  0  0
    1.8246    3.7604   -2.4390 O   0  0  0  0  0  0  0  0  0  0  0  0
    2.8619    2.7726   -2.5218 C   0  0  1  0  0  0  0  0  0  0  0  0
    3.3116    2.6660   -1.5312 H   0  0  0  0  0  0  0  0  0  0  0  0
    2.4216    1.4820   -2.9340 O   0  0  0  0  0  0  0  0  0  0  0  0
    1.8793    1.3605   -4.2503 C   0  0  1  0  0  0  0  0  0  0  0  0
    0.9224    1.9001   -4.3002 H   0  0  0  0  0  0  0  0  0  0  0  0
    2.8472    1.9203   -5.3073 C   0  0  2  0  0  0  0  0  0  0  0  0
    3.7029    1.2436   -5.4265 H   0  0  0  0  0  0  0  0  0  0  0  0
    3.3656    3.3077   -4.8925 C   0  0  1  0  0  0  0  0  0  0  0  0
    2.5465    4.0353   -4.9420 H   0  0  0  0  0  0  0  0  0  0  0  0
    3.9668    3.2572   -3.4786 C   0  0  1  0  0  0  0  0  0  0  0  0
    4.7894    2.5303   -3.4804 H   0  0  0  0  0  0  0  0  0  0  0  0
    4.5360    4.5582   -3.0641 N   0  0  0  0  0  0  0  0  0  0  0  0
    4.3531    3.7460   -5.8358 O   0  0  0  0  0  0  0  0  0  0  0  0
    2.2485    2.0621   -6.6057 O   0  0  0  0  0  0  0  0  0  0  0  0
    1.6026   -0.1445   -4.5187 C   0  0  0  0  0  0  0  0  0  0  0  0
    0.6239   -0.7211   -3.5845 N   0  0  0  0  0  0  0  0  0  0  0  0
   -1.5893   -2.0830    1.0597 C   0  0  0  0  0  0  0  0  0  0  0  0
   -2.9553   -1.7531    0.7994 O   0  0  0  0  0  0  0  0  0  0  0  0
    2.8628    0.8390   -0.5922 H   0  0  0  0  0  0  0  0  0  0  0  0
    3.5702   -3.6281   -2.0217 H   0  0  0  0  0  0  0  0  0  0  0  0
    5.0877   -3.0742   -2.0749 H   0  0  0  0  0  0  0  0  0  0  0  0
    6.5727   -4.8134    0.6222 H   0  0  0  0  0  0  0  0  0  0  0  0
    4.7897   -5.5624    3.2019 H   0  0  0  0  0  0  0  0  0  0  0  0
    2.1569   -4.7783    0.4186 H   0  0  0  0  0  0  0  0  0  0  0  0
    2.4342   -5.9258    1.7256 H   0  0  0  0  0  0  0  0  0  0  0  0
    0.6052   -3.6886    1.9833 H   0  0  0  0  0  0  0  0  0  0  0  0
    0.6431   -5.0332    2.9046 H   0  0  0  0  0  0  0  0  0  0  0  0
   -1.1729    6.3508   -1.5853 H   0  0  0  0  0  0  0  0  0  0  0  0
    0.5607    6.1935   -1.7002 H   0  0  0  0  0  0  0  0  0  0  0  0
   -1.5796    4.2566    0.9949 H   0  0  0  0  0  0  0  0  0  0  0  0
   -2.2612    5.5550    0.2810 H   0  0  0  0  0  0  0  0  0  0  0  0
    2.1895    6.1152    0.8268 H   0  0  0  0  0  0  0  0  0  0  0  0
   -1.8610    3.3861   -0.8543 H   0  0  0  0  0  0  0  0  0  0  0  0
   -1.9326    2.9530   -2.4117 H   0  0  0  0  0  0  0  0  0  0  0  0
    3.7556    5.1852   -2.8538 H   0  0  0  0  0  0  0  0  0  0  0  0
    4.9973    4.9536   -3.8886 H   0  0  0  0  0  0  0  0  0  0  0  0
    3.9570    3.5602   -6.7112 H   0  0  0  0  0  0  0  0  0  0  0  0
    1.4469    1.5126   -6.6557 H   0  0  0  0  0  0  0  0  0  0  0  0
    2.5312   -0.7200   -4.4197 H   0  0  0  0  0  0  0  0  0  0  0  0
    1.2264   -0.2935   -5.5356 H   0  0  0  0  0  0  0  0  0  0  0  0
    1.0714   -0.7268   -2.6581 H   0  0  0  0  0  0  0  0  0  0  0  0
    0.4981   -1.7110   -3.8114 H   0  0  0  0  0  0  0  0  0  0  0  0
   -1.4331   -1.9628    2.1375 H   0  0  0  0  0  0  0  0  0  0  0  0
   -1.4217   -3.1289    0.7856 H   0  0  0  0  0  0  0  0  0  0  0  0
   -3.0074   -0.7785    0.8873 H   0  0  0  0  0  0  0  0  0  0  0  0
  1  2  1  0  0  0  0
  1  3  1  0  0  0  0
  1  9  1  1  0  0  0
  1 60  1  0  0  0  0
  3  4  1  0  0  0  0
  4  6  1  1  0  0  0
  4 28  1  0  0  0  0
  4  5  1  0  0  0  0
  6  7  1  1  0  0  0
  6  8  1  0  0  0  0
  8 62  1  0  0  0  0
  9  6  1  6  0  0  0
  9 10  1  0  0  0  0
  9 11  1  0  0  0  0
 11 12  1  0  0  0  0
 12 13  1  0  0  0  0
 12 14  1  0  0  0  0
 12 21  1  6  0  0  0
 14 15  1  0  0  0  0
 15 17  1  6  0  0  0
 15 26  1  0  0  0  0
 15 16  1  0  0  0  0
 17 19  1  6  0  0  0
 17 25  1  0  0  0  0
 17 18  1  0  0  0  0
 19 20  1  0  0  0  0
 19 21  1  6  0  0  0
 19 24  1  0  0  0  0
 21 23  1  0  0  0  0
 21 22  1  1  0  0  0
 23 63  1  0  0  0  0
 23 64  1  0  0  0  0
 24 65  1  0  0  0  0
 25 66  1  0  0  0  0
 26 27  1  0  0  0  0
 26 67  1  0  0  0  0
 26 68  1  0  0  0  0
 27 69  1  0  0  0  0
 27 70  1  0  0  0  0
 28 29  1  0  0  0  0
 29 30  1  0  0  0  0
 29 31  1  6  0  0  0
 31 43  1  0  0  0  0
 31 32  1  6  0  0  0
 33 31  1  1  0  0  0
 33 35  1  0  0  0  0
 33 42  1  0  0  0  0
 33 34  1  0  0  0  0
 35 36  1  0  0  0  0
 35 71  1  0  0  0  0
 35 72  1  0  0  0  0
 36 39  1  1  0  0  0
 36 38  1  0  0  0  0
 36 37  1  0  0  0  0
 38 73  1  0  0  0  0
 38 74  1  0  0  0  0
 39 40  1  0  0  0  0
 39 29  1  6  0  0  0
 39 41  1  0  0  0  0
 41 75  1  0  0  0  0
 42 76  1  0  0  0  0
 42 77  1  0  0  0  0
 43 44  1  0  0  0  0
 44 45  1  0  0  0  0
 44 46  1  0  0  0  0
 44 53  1  6  0  0  0
 46 47  1  0  0  0  0
 47 48  1  0  0  0  0
 47 49  1  6  0  0  0
 47 58  1  0  0  0  0
 49 51  1  1  0  0  0
 49 57  1  0  0  0  0
 49 50  1  0  0  0  0
 51 52  1  0  0  0  0
 51 53  1  1  0  0  0
 51 56  1  0  0  0  0
 53 55  1  0  0  0  0
 53 54  1  1  0  0  0
 55 78  1  0  0  0  0
 55 79  1  0  0  0  0
 56 80  1  0  0  0  0
 57 81  1  0  0  0  0
 58 59  1  0  0  0  0
 58 82  1  0  0  0  0
 58 83  1  0  0  0  0
 59 84  1  0  0  0  0
 59 85  1  0  0  0  0
 60 61  1  0  0  0  0
 60 86  1  0  0  0  0
 60 87  1  0  0  0  0
 61 88  1  0  0  0  0
M  END
$$$$
