REMARK  22 active torsions:
REMARK  status: ('A' for Active; 'I' for Inactive)
REMARK    1  A    between atoms: C_1  and  C_41 
REMARK    2  A    between atoms: C_3  and  O_19 
REMARK    3  A    between atoms: C_4  and  O_5 
REMARK    4  A    between atoms: C_6  and  O_7 
REMARK    5  A    between atoms: O_7  and  C_8 
REMARK    6  A    between atoms: C_10  and  C_17 
REMARK    7  A    between atoms: C_11  and  O_16 
REMARK    8  A    between atoms: C_12  and  O_15 
REMARK    9  A    between atoms: C_13  and  N_14 
REMARK   10  A    between atoms: C_17  and  N_18 
REMARK   11  A    between atoms: O_19  and  C_20 
REMARK   12  A    between atoms: C_21  and  O_29 
REMARK   13  A    between atoms: C_22  and  N_28 
REMARK   14  A    between atoms: C_24  and  N_25 
REMARK   15  A    between atoms: C_26  and  O_27 
REMARK   16  A    between atoms: O_29  and  C_30 
REMARK   17  A    between atoms: C_32  and  C_39 
REMARK   18  A    between atoms: C_33  and  O_38 
REMARK   19  A    between atoms: C_34  and  O_37 
REMARK   20  A    between atoms: C_35  and  N_36 
REMARK   21  A    between atoms: C_39  and  N_40 
REMARK   22  A    between atoms: C_41  and  O_42 
ROOT
ATOM      1  C   UNL d   1       0.903   3.244  -0.135  0.00  0.00     0.186 C 
ATOM      2  C   UNL d   1       0.674   3.373  -1.673  0.00  0.00     0.189 C 
ATOM      3  C   UNL d   1      -0.480   4.345  -2.034  0.00  0.00     0.251 C 
ATOM      4  C   UNL d   1      -0.338   5.690  -1.316  0.00  0.00     0.076 C 
ATOM      5  C   UNL d   1      -0.214   5.588   0.210  0.00  0.00     0.251 C 
ATOM      6  C   UNL d   1       0.935   4.623   0.590  0.00  0.00     0.182 C 
ENDROOT
BRANCH   1   7
ATOM      7  O   UNL d   1      -0.084   2.381   0.500  0.00  0.00    -0.348 OA
BRANCH   7   8
ATOM      8  C   UNL d   1      -0.054   1.020   0.043  0.00  0.00     0.292 C 
ATOM      9  O   UNL d   1      -1.092   0.218   0.616  0.00  0.00    -0.348 OA
ATOM     10  C   UNL d   1      -0.685  -1.145   0.267  0.00  0.00     0.180 C 
ATOM     11  C   UNL d   1       0.804  -1.193   0.632  0.00  0.00     0.189 C 
ATOM     12  C   UNL d   1       1.241   0.256   0.351  0.00  0.00     0.205 C 
BRANCH  10  13
ATOM     13  C   UNL d   1      -1.589  -2.083   1.060  0.00  0.00     0.198 C 
BRANCH  13  14
ATOM     14  O   UNL d   1      -2.955  -1.753   0.799  0.00  0.00    -0.398 OA
ATOM     15  H   UNL d   1      -3.007  -0.778   0.887  0.00  0.00     0.209 HD
ENDBRANCH  13  14
ENDBRANCH  10  13
BRANCH  11  16
ATOM     16  O   UNL d   1       1.643  -2.192  -0.023  0.00  0.00    -0.348 OA
BRANCH  16  17
ATOM     17  C   UNL d   1       2.977  -2.149   0.538  0.00  0.00     0.296 C 
ATOM     18  O   UNL d   1       2.898  -2.537   1.912  0.00  0.00    -0.349 OA
ATOM     19  C   UNL d   1       3.144  -3.909   2.180  0.00  0.00     0.183 C 
ATOM     20  C   UNL d   1       4.601  -4.180   1.827  0.00  0.00     0.179 C 
ATOM     21  C   UNL d   1       4.794  -4.074   0.313  0.00  0.00     0.187 C 
ATOM     22  C   UNL d   1       4.213  -2.761  -0.265  0.00  0.00     0.303 C 
BRANCH  19  23
ATOM     23  C   UNL d   1       2.148  -4.891   1.508  0.00  0.00     0.301 C 
BRANCH  23  24
ATOM     24  N   UNL d   1       0.774  -4.692   1.941  0.00  0.00     0.080 N 
ATOM     25  H   UNL d   1       0.605  -3.689   1.983  0.00  0.00     0.312 HD
ATOM     26  H   UNL d   1       0.643  -5.033   2.905  0.00  0.00     0.312 HD
ENDBRANCH  23  24
ENDBRANCH  19  23
BRANCH  20  27
ATOM     27  O   UNL d   1       5.029  -5.472   2.261  0.00  0.00    -0.390 OA
ATOM     28  H   UNL d   1       4.790  -5.562   3.202  0.00  0.00     0.210 HD
ENDBRANCH  20  27
BRANCH  21  29
ATOM     29  O   UNL d   1       6.204  -4.138   0.016  0.00  0.00    -0.391 OA
ATOM     30  H   UNL d   1       6.573  -4.813   0.622  0.00  0.00     0.210 HD
ENDBRANCH  21  29
BRANCH  22  31
ATOM     31  N   UNL d   1       4.145  -2.831  -1.748  0.00  0.00     0.090 N 
ATOM     32  H   UNL d   1       3.570  -3.628  -2.022  0.00  0.00     0.313 HD
ATOM     33  H   UNL d   1       5.088  -3.074  -2.075  0.00  0.00     0.313 HD
ENDBRANCH  22  31
ENDBRANCH  16  17
ENDBRANCH  11  16
BRANCH  12  34
ATOM     34  O   UNL d   1       2.094   0.278  -0.778  0.00  0.00    -0.388 OA
ATOM     35  H   UNL d   1       2.863   0.839  -0.592  0.00  0.00     0.210 HD
ENDBRANCH  12  34
ENDBRANCH   7   8
ENDBRANCH   1   7
BRANCH   2  36
ATOM     36  O   UNL d   1       1.825   3.760  -2.439  0.00  0.00    -0.349 OA
BRANCH  36  37
ATOM     37  C   UNL d   1       2.862   2.773  -2.522  0.00  0.00     0.296 C 
ATOM     38  O   UNL d   1       2.422   1.482  -2.934  0.00  0.00    -0.349 OA
ATOM     39  C   UNL d   1       1.879   1.361  -4.250  0.00  0.00     0.183 C 
ATOM     40  C   UNL d   1       2.847   1.920  -5.307  0.00  0.00     0.179 C 
ATOM     41  C   UNL d   1       3.366   3.308  -4.893  0.00  0.00     0.187 C 
ATOM     42  C   UNL d   1       3.967   3.257  -3.479  0.00  0.00     0.303 C 
BRANCH  39  43
ATOM     43  C   UNL d   1       1.603  -0.144  -4.519  0.00  0.00     0.301 C 
BRANCH  43  44
ATOM     44  N   UNL d   1       0.624  -0.721  -3.584  0.00  0.00     0.080 N 
ATOM     45  H   UNL d   1       1.071  -0.727  -2.658  0.00  0.00     0.312 HD
ATOM     46  H   UNL d   1       0.498  -1.711  -3.811  0.00  0.00     0.312 HD
ENDBRANCH  43  44
ENDBRANCH  39  43
BRANCH  40  47
ATOM     47  O   UNL d   1       2.248   2.062  -6.606  0.00  0.00    -0.390 OA
ATOM     48  H   UNL d   1       1.447   1.513  -6.656  0.00  0.00     0.210 HD
ENDBRANCH  40  47
BRANCH  41  49
ATOM     49  O   UNL d   1       4.353   3.746  -5.836  0.00  0.00    -0.391 OA
ATOM     50  H   UNL d   1       3.957   3.560  -6.711  0.00  0.00     0.210 HD
ENDBRANCH  41  49
BRANCH  42  51
ATOM     51  N   UNL d   1       4.536   4.558  -3.064  0.00  0.00     0.090 N 
ATOM     52  H   UNL d   1       3.756   5.185  -2.854  0.00  0.00     0.313 HD
ATOM     53  H   UNL d   1       4.997   4.954  -3.889  0.00  0.00     0.313 HD
ENDBRANCH  42  51
ENDBRANCH  36  37
ENDBRANCH   2  36
BRANCH   6  54
ATOM     54  O   UNL d   1       2.189   5.276   0.330  0.00  0.00    -0.391 OA
ATOM     55  H   UNL d   1       2.189   6.115   0.827  0.00  0.00     0.210 HD
ENDBRANCH   6  54
BRANCH   3  56
ATOM     56  N   UNL d   1      -1.811   3.764  -1.802  0.00  0.00     0.085 N 
ATOM     57  H   UNL d   1      -1.861   3.386  -0.854  0.00  0.00     0.313 HD
ATOM     58  H   UNL d   1      -1.933   2.953  -2.412  0.00  0.00     0.313 HD
ENDBRANCH   3  56
BRANCH   5  59
ATOM     59  N   UNL d   1      -1.481   5.265   0.875  0.00  0.00     0.085 N 
ATOM     60  H   UNL d   1      -1.580   4.257   0.995  0.00  0.00     0.313 HD
ATOM     61  H   UNL d   1      -2.261   5.555   0.281  0.00  0.00     0.313 HD
ENDBRANCH   5  59
TORSDOF 22
