REMARK  15 active torsions:
REMARK  status: ('A' for Active; 'I' for Inactive)
REMARK    1  A    between atoms: C_1  and  O_2 
REMARK    2  A    between atoms: C_3  and  O_2 
REMARK    3  A    between atoms: C_4  and  N_23 
REMARK    4  A    between atoms: C_6  and  N_7 
REMARK    5  A    between atoms: C_8  and  O_11 
REMARK    6  A    between atoms: C_9  and  O_10 
REMARK    7  A    between atoms: C_12  and  O_11 
REMARK    8  A    between atoms: C_13  and  O_14 
REMARK    9  A    between atoms: C_15  and  N_16 
REMARK   10  A    between atoms: C_18  and  O_19 
REMARK   11  A    between atoms: C_24  and  N_25 
REMARK   12  A    between atoms: C_26  and  O_27 
REMARK   13  A    between atoms: C_28  and  O_29 
REMARK   14  A    between atoms: C_30  and  C_32 
REMARK   15  A    between atoms: C_32  and  O_33 
ROOT
ATOM      1  C   UNL d   1      -2.091   5.168  -0.383  0.00  0.00     0.189 C 
ATOM      2  C   UNL d   1      -3.270   4.481  -1.123  0.00  0.00     0.251 C 
ATOM      3  C   UNL d   1      -3.173   4.608  -2.639  0.00  0.00     0.076 C 
ATOM      4  C   UNL d   1      -1.866   4.003  -3.155  0.00  0.00     0.251 C 
ATOM      5  C   UNL d   1      -0.677   4.765  -2.521  0.00  0.00     0.189 C 
ATOM      6  C   UNL d   1      -0.734   4.709  -0.978  0.00  0.00     0.180 C 
ENDROOT
BRANCH   1   7
ATOM      7  O   UNL d   1      -2.292   4.843   1.014  0.00  0.00    -0.349 OA
BRANCH   7   8
ATOM      8  C   UNL d   1      -1.322   5.273   1.979  0.00  0.00     0.296 C 
ATOM      9  O   UNL d   1      -0.120   4.531   1.819  0.00  0.00    -0.348 OA
ATOM     10  C   UNL d   1       0.991   4.854   2.652  0.00  0.00     0.184 C 
ATOM     11  C   UNL d   1       1.209   6.368   2.889  0.00  0.00     0.180 C 
ATOM     12  C   UNL d   1      -0.108   7.099   3.207  0.00  0.00     0.187 C 
ATOM     13  C   UNL d   1      -1.169   6.830   2.119  0.00  0.00     0.303 C 
BRANCH  10  14
ATOM     14  C   UNL d   1       0.964   4.043   3.971  0.00  0.00     0.145 C 
ATOM     15  C   UNL d   1       0.753   2.550   3.755  0.00  0.00     0.042 C 
BRANCH  14  16
ATOM     16  O   UNL d   1       2.207   4.223   4.668  0.00  0.00    -0.393 OA
ATOM     17  H   UNL d   1       2.900   3.783   4.148  0.00  0.00     0.210 HD
ENDBRANCH  14  16
ENDBRANCH  10  14
BRANCH  11  18
ATOM     18  O   UNL d   1       1.832   6.952   1.731  0.00  0.00    -0.390 OA
ATOM     19  H   UNL d   1       1.941   7.903   1.889  0.00  0.00     0.210 HD
ENDBRANCH  11  18
BRANCH  12  20
ATOM     20  O   UNL d   1      -0.624   6.728   4.487  0.00  0.00    -0.391 OA
ATOM     21  H   UNL d   1       0.097   6.799   5.139  0.00  0.00     0.210 HD
ENDBRANCH  12  20
BRANCH  13  22
ATOM     22  N   UNL d   1      -0.824   7.572   0.886  0.00  0.00     0.090 N 
ATOM     23  H   UNL d   1       0.046   7.139   0.536  0.00  0.00     0.313 HD
ATOM     24  H   UNL d   1      -0.611   8.551   1.098  0.00  0.00     0.313 HD
ENDBRANCH  13  22
ENDBRANCH   7   8
ENDBRANCH   1   7
BRANCH   2  25
ATOM     25  N   UNL d   1      -4.562   5.047  -0.694  0.00  0.00     0.085 N 
ATOM     26  H   UNL d   1      -4.564   5.053   0.329  0.00  0.00     0.313 HD
ATOM     27  H   UNL d   1      -5.322   4.434  -0.980  0.00  0.00     0.313 HD
ENDBRANCH   2  25
BRANCH   6  28
ATOM     28  O   UNL d   1       0.355   5.528  -0.500  0.00  0.00    -0.390 OA
ATOM     29  H   UNL d   1       0.625   6.129  -1.213  0.00  0.00     0.210 HD
ENDBRANCH   6  28
BRANCH   5  30
ATOM     30  O   UNL d   1       0.626   4.245  -2.833  0.00  0.00    -0.348 OA
BRANCH  30  31
ATOM     31  C   UNL d   1       1.022   4.337  -4.191  0.00  0.00     0.291 C 
ATOM     32  C   UNL d   1       2.485   3.854  -4.263  0.00  0.00     0.209 C 
ATOM     33  C   UNL d   1       2.941   3.854  -5.738  0.00  0.00     0.288 C 
ATOM     34  C   UNL d   1       2.693   5.279  -6.363  0.00  0.00     0.109 C 
ATOM     35  C   UNL d   1       3.688   6.330  -5.852  0.00  0.00     0.050 C 
ATOM     36  C   UNL d   1       1.252   5.748  -6.068  0.00  0.00     0.210 C 
ATOM     37  O   UNL d   1       0.924   5.677  -4.677  0.00  0.00    -0.356 OA
BRANCH  32  38
ATOM     38  O   UNL d   1       3.351   4.687  -3.471  0.00  0.00    -0.388 OA
ATOM     39  H   UNL d   1       2.797   5.018  -2.736  0.00  0.00     0.210 HD
ENDBRANCH  32  38
BRANCH  33  40
ATOM     40  N   UNL d   1       2.283   2.819  -6.591  0.00  0.00     0.089 N 
ATOM     41  C   UNL d   1       2.391   1.457  -6.087  0.00  0.00     0.307 C 
ATOM     42  H   UNL d   1       1.298   3.045  -6.742  0.00  0.00     0.316 HD
ENDBRANCH  33  40
BRANCH  34  43
ATOM     43  O   UNL d   1       2.871   5.232  -7.791  0.00  0.00    -0.386 OA
ATOM     44  H   UNL d   1       3.486   4.495  -7.967  0.00  0.00     0.210 HD
ENDBRANCH  34  43
ENDBRANCH  30  31
ENDBRANCH   5  30
BRANCH   4  45
ATOM     45  N   UNL d   1      -1.885   4.060  -4.625  0.00  0.00     0.085 N 
ATOM     46  H   UNL d   1      -1.846   5.030  -4.935  0.00  0.00     0.313 HD
ATOM     47  H   UNL d   1      -2.768   3.690  -4.975  0.00  0.00     0.313 HD
ENDBRANCH   4  45
TORSDOF 15
