@<TRIPOS>MOLECULE
4K32_GET_A_101
 74 76 0 0 0
SMALL
GASTEIGER

@<TRIPOS>ATOM
      1 C          -1.3219    5.2732    1.9789 C.3     1  UNL1        0.1776
      2 H          -1.7478    4.9283    2.9300 H       1  UNL1        0.0927
      3 O          -2.2921    4.8428    1.0135 O.3     1  UNL1       -0.3422
      4 C          -2.0910    5.1678   -0.3826 C.3     1  UNL1        0.1051
      5 H          -2.2051    6.2473   -0.5132 H       1  UNL1        0.0639
      6 C          -3.2701    4.4812   -1.1235 C.3     1  UNL1        0.0355
      7 H          -3.2821    3.4159   -0.8480 H       1  UNL1        0.0485
      8 C          -3.1733    4.6079   -2.6391 C.3     1  UNL1       -0.0175
      9 C          -1.8658    4.0028   -3.1550 C.3     1  UNL1        0.0355
     10 H          -1.7996    2.9464   -2.8743 H       1  UNL1        0.0485
     11 N          -1.8854    4.0598   -4.6251 N.3     1  UNL1       -0.3250
     12 C          -0.6771    4.7654   -2.5207 C.3     1  UNL1        0.1051
     13 H          -0.7057    5.8220   -2.8259 H       1  UNL1        0.0639
     14 C          -0.7338    4.7086   -0.9778 C.3     1  UNL1        0.1104
     15 H          -0.5166    3.6863   -0.6377 H       1  UNL1        0.0646
     16 O           0.3546    5.5277   -0.4997 O.3     1  UNL1       -0.3865
     17 O           0.6260    4.2450   -2.8332 O.3     1  UNL1       -0.3413
     18 C           1.0220    4.3370   -4.1915 C.3     1  UNL1        0.1870
     19 H           0.4113    3.6558   -4.7873 H       1  UNL1        0.0937
     20 C           2.4845    3.8542   -4.2633 C.3     1  UNL1        0.1239
     21 H           2.5731    2.8635   -3.8082 H       1  UNL1        0.0661
     22 O           3.3509    4.6871   -3.4713 O.3     1  UNL1       -0.3851
     23 C           2.9413    3.8536   -5.7378 C.3     1  UNL1        0.0692
     24 H           4.0190    3.6518   -5.7841 H       1  UNL1        0.0517
     25 N           2.2831    2.8192   -6.5914 N.3     1  UNL1       -0.3115
     26 C           2.3911    1.4572   -6.0871 C.3     1  UNL1       -0.0154
     27 C           2.6930    5.2791   -6.3629 C.3     1  UNL1        0.1043
     28 O           2.8709    5.2316   -7.7913 O.3     1  UNL1       -0.3849
     29 C           3.6885    6.3304   -5.8521 C.3     1  UNL1       -0.0323
     30 C           1.2524    5.7485   -6.0684 C.3     1  UNL1        0.0808
     31 O           0.9236    5.6768   -4.6769 O.3     1  UNL1       -0.3459
     32 N          -4.5616    5.0473   -0.6935 N.3     1  UNL1       -0.3250
     33 C          -1.1686    6.8305    2.1189 C.3     1  UNL1        0.0853
     34 H          -2.1425    7.2192    2.4397 H       1  UNL1        0.0535
     35 N          -0.8238    7.5723    0.8861 N.3     1  UNL1       -0.3211
     36 C          -0.1076    7.0989    3.2068 C.3     1  UNL1        0.1033
     37 H           0.0810    8.1783    3.2565 H       1  UNL1        0.0637
     38 O          -0.6244    6.7275    4.4869 O.3     1  UNL1       -0.3874
     39 C           1.2089    6.3681    2.8888 C.3     1  UNL1        0.1112
     40 H           1.9173    6.5123    3.7095 H       1  UNL1        0.0646
     41 O           1.8320    6.9521    1.7309 O.3     1  UNL1       -0.3865
     42 C           0.9907    4.8537    2.6518 C.3     1  UNL1        0.1155
     43 H           1.8668    4.5011    2.0875 H       1  UNL1        0.0650
     44 O          -0.1203    4.5314    1.8189 O.3     1  UNL1       -0.3412
     45 C           0.9644    4.0430    3.9714 C.3     1  UNL1        0.0811
     46 H           0.1687    4.3997    4.6245 H       1  UNL1        0.0617
     47 O           2.2072    4.2230    4.6684 O.3     1  UNL1       -0.3894
     48 C           0.7527    2.5502    3.7547 C.3     1  UNL1       -0.0364
     49 H          -3.2336    5.6679   -2.9309 H       1  UNL1        0.0297
     50 H          -4.0293    4.1049   -3.1086 H       1  UNL1        0.0297
     51 H          -1.8463    5.0304   -4.9350 H       1  UNL1        0.1185
     52 H          -2.7676    3.6896   -4.9751 H       1  UNL1        0.1185
     53 H           0.6248    6.1287   -1.2127 H       1  UNL1        0.2100
     54 H           2.7966    5.0176   -2.7364 H       1  UNL1        0.2101
     55 H           1.2981    3.0453   -6.7415 H       1  UNL1        0.1221
     56 H           3.4366    1.1468   -6.0100 H       1  UNL1        0.0388
     57 H           1.8932    0.7754   -6.7847 H       1  UNL1        0.0388
     58 H           1.8979    1.3229   -5.1198 H       1  UNL1        0.0388
     59 H           3.4861    4.4952   -7.9668 H       1  UNL1        0.2103
     60 H           4.7108    5.9357   -5.8558 H       1  UNL1        0.0258
     61 H           3.4562    6.6830   -4.8435 H       1  UNL1        0.0258
     62 H           3.6939    7.2079   -6.5101 H       1  UNL1        0.0258
     63 H           0.5173    5.1703   -6.6432 H       1  UNL1        0.0590
     64 H           1.1179    6.7883   -6.3905 H       1  UNL1        0.0590
     65 H          -4.5639    5.0530    0.3292 H       1  UNL1        0.1185
     66 H          -5.3215    4.4338   -0.9803 H       1  UNL1        0.1185
     67 H           0.0457    7.1387    0.5362 H       1  UNL1        0.1187
     68 H          -0.6110    8.5509    1.0977 H       1  UNL1        0.1187
     69 H           0.0967    6.7988    5.1394 H       1  UNL1        0.2100
     70 H           1.9413    7.9032    1.8895 H       1  UNL1        0.2100
     71 H           2.9001    3.7825    4.1482 H       1  UNL1        0.2099
     72 H           1.5373    2.1252    3.1196 H       1  UNL1        0.0255
     73 H          -0.2210    2.3426    3.3004 H       1  UNL1        0.0255
     74 H           0.8057    2.0228    4.7135 H       1  UNL1        0.0255
@<TRIPOS>BOND
     1     1    44    1
     2     1     3    1
     3     1     2    1
     4     4     6    1
     5     4     5    1
     6     4     3    1
     7     6     7    1
     8     6     8    1
     9     6    32    1
    10     8     9    1
    11     8    49    1
    12     8    50    1
    13     9    12    1
    14     9    11    1
    15     9    10    1
    16    11    51    1
    17    11    52    1
    18    12    13    1
    19    12    14    1
    20    12    17    1
    21    14     4    1
    22    14    16    1
    23    14    15    1
    24    16    53    1
    25    18    20    1
    26    18    31    1
    27    18    19    1
    28    18    17    1
    29    20    23    1
    30    20    22    1
    31    20    21    1
    32    22    54    1
    33    23    27    1
    34    23    25    1
    35    23    24    1
    36    25    26    1
    37    25    55    1
    38    26    56    1
    39    26    57    1
    40    26    58    1
    41    27    28    1
    42    27    29    1
    43    27    30    1
    44    28    59    1
    45    29    60    1
    46    29    61    1
    47    29    62    1
    48    30    31    1
    49    30    63    1
    50    30    64    1
    51    32    65    1
    52    32    66    1
    53    33     1    1
    54    33    35    1
    55    33    34    1
    56    35    67    1
    57    35    68    1
    58    36    33    1
    59    36    38    1
    60    36    37    1
    61    38    69    1
    62    39    36    1
    63    39    40    1
    64    39    41    1
    65    41    70    1
    66    42    39    1
    67    42    44    1
    68    42    45    1
    69    42    43    1
    70    45    48    1
    71    45    47    1
    72    45    46    1
    73    47    71    1
    74    48    72    1
    75    48    73    1
    76    48    74    1
