@<TRIPOS>MOLECULE
3MIJ_R14_A_30
 103 109 0 0 0
SMALL
GASTEIGER

@<TRIPOS>ATOM
      1 C           7.8677   -1.0379    3.2743 C.3     1  UNL1       -0.0524
      2 C           6.9498   -1.3982    4.4368 C.3     1  UNL1       -0.0039
      3 N           7.6325   -2.1027    5.5389 N.3     1  UNL1       -0.3024
      4 C           8.7736   -1.3520    6.1051 C.3     1  UNL1       -0.0039
      5 C           8.4342   -0.0400    6.8106 C.3     1  UNL1       -0.0524
      6 C           6.6931   -2.4989    6.6128 C.3     1  UNL1        0.0071
      7 C           5.5817   -3.4528    6.1802 C.3     1  UNL1        0.0370
      8 C           6.0787   -4.8231    5.7590 C.2     1  UNL1        0.2184
      9 O           5.5875   -5.8197    6.2830 O.2     1  UNL1       -0.2754
     10 N           7.0437   -4.7999    4.7683 N.am    1  UNL1       -0.2854
     11 C           7.6543   -5.9329    4.1886 C.ar    1  UNL1        0.0340
     12 C           7.0916   -7.2058    4.2957 C.ar    1  UNL1       -0.0404
     13 C           7.7744   -8.3235    3.8361 C.ar    1  UNL1       -0.0594
     14 C           9.0255   -8.1748    3.2502 C.ar    1  UNL1       -0.0523
     15 C           9.6020   -6.9040    3.0821 C.ar    1  UNL1        0.0054
     16 C           8.8860   -5.7786    3.5268 C.ar    1  UNL1       -0.0312
     17 C          10.9419   -6.7817    2.5240 C.ar    1  UNL1        0.1130
     18 C          11.7713   -7.8277    2.1908 C.ar    1  UNL1        0.0591
     19 N          12.9437   -7.2498    1.7835 N.ar    1  UNL1       -0.2194
     20 N          12.8174   -5.8988    1.8364 N.ar    1  UNL1       -0.0602
     21 N          11.6031   -5.6067    2.2927 N.ar    1  UNL1       -0.1292
     22 C          14.1420   -7.8928    1.3658 C.ar    1  UNL1        0.0691
     23 C          15.2438   -7.1173    1.0005 C.ar    1  UNL1       -0.0355
     24 C          16.4178   -7.7452    0.5877 C.ar    1  UNL1       -0.0505
     25 C          16.4956   -9.1439    0.5392 C.ar    1  UNL1        0.0011
     26 C          17.6616   -9.7818    0.1216 C.ar    1  UNL1       -0.0434
     27 C          17.7172  -11.1734    0.0728 C.ar    1  UNL1        0.0011
     28 C          18.8792  -11.8254   -0.3559 C.ar    1  UNL1       -0.0505
     29 C          18.9203  -13.2123   -0.4157 C.ar    1  UNL1       -0.0355
     30 C          17.7961  -13.9573   -0.0435 C.ar    1  UNL1        0.0691
     31 C          16.6393  -13.2947    0.3979 C.ar    1  UNL1       -0.0102
     32 C          16.5763  -11.9033    0.4603 C.ar    1  UNL1        0.0737
     33 N          15.4471  -11.2919    0.8710 N.ar    1  UNL1       -0.2466
     34 C          15.3988   -9.9437    0.9079 C.ar    1  UNL1        0.0737
     35 C          14.2356   -9.2977    1.3178 C.ar    1  UNL1       -0.0102
     36 N          17.8549  -15.3709   -0.1277 N.ar    1  UNL1       -0.2194
     37 C          16.8972  -16.3019    0.2008 C.ar    1  UNL1        0.0591
     38 C          17.4914  -17.5184   -0.0473 C.ar    1  UNL1        0.1130
     39 N          18.7531  -17.3085   -0.5313 N.ar    1  UNL1       -0.1292
     40 N          18.9664  -16.0036   -0.5772 N.ar    1  UNL1       -0.0602
     41 C          16.9411  -18.8373    0.2005 C.ar    1  UNL1        0.0054
     42 C          15.6459  -19.0324    0.6931 C.ar    1  UNL1       -0.0523
     43 C          15.1853  -20.3197    0.9793 C.ar    1  UNL1       -0.0594
     44 C          16.0109  -21.4257    0.7774 C.ar    1  UNL1       -0.0404
     45 C          17.2984  -21.2491    0.2828 C.ar    1  UNL1        0.0340
     46 C          17.7523  -19.9590   -0.0139 C.ar    1  UNL1       -0.0312
     47 N          18.2178  -22.2901    0.1017 N.am    1  UNL1       -0.2854
     48 C          18.0160  -23.6472    0.1856 C.2     1  UNL1        0.2184
     49 O          16.9387  -24.2077    0.3873 O.2     1  UNL1       -0.2754
     50 C          19.2888  -24.4739    0.0738 C.3     1  UNL1        0.0370
     51 C          20.4262  -23.8299   -0.7302 C.3     1  UNL1        0.0071
     52 N          20.9405  -22.5469   -0.1810 N.3     1  UNL1       -0.3024
     53 C          21.4250  -22.6505    1.2095 C.3     1  UNL1       -0.0039
     54 C          22.6634  -23.5103    1.4292 C.3     1  UNL1       -0.0524
     55 C          21.9266  -21.9680   -1.1141 C.3     1  UNL1       -0.0039
     56 C          22.4566  -20.5960   -0.7083 C.3     1  UNL1       -0.0524
     57 H           7.2660   -0.7806    2.3964 H       1  UNL1        0.0242
     58 H           8.5114   -1.8804    2.9983 H       1  UNL1        0.0242
     59 H           8.4969   -0.1753    3.5110 H       1  UNL1        0.0242
     60 H           6.1921   -2.0617    4.0075 H       1  UNL1        0.0424
     61 H           6.4198   -0.5073    4.7897 H       1  UNL1        0.0424
     62 H           9.5116   -1.1574    5.3191 H       1  UNL1        0.0424
     63 H           9.3032   -1.9991    6.8175 H       1  UNL1        0.0424
     64 H           7.7442    0.5787    6.2308 H       1  UNL1        0.0242
     65 H           9.3454    0.5463    6.9668 H       1  UNL1        0.0242
     66 H           7.9884   -0.2240    7.7936 H       1  UNL1        0.0242
     67 H           6.2235   -1.6110    7.0545 H       1  UNL1        0.0431
     68 H           7.2599   -2.9935    7.4136 H       1  UNL1        0.0431
     69 H           4.9494   -3.0434    5.3874 H       1  UNL1        0.0371
     70 H           4.9187   -3.6039    7.0420 H       1  UNL1        0.0371
     71 H           7.5115   -3.9033    4.6333 H       1  UNL1        0.1548
     72 H           6.1183   -7.3617    4.7497 H       1  UNL1        0.0636
     73 H           7.3413   -9.3111    3.9647 H       1  UNL1        0.0618
     74 H           9.5415   -9.0780    2.9425 H       1  UNL1        0.0624
     75 H           9.3170   -4.7858    3.4064 H       1  UNL1        0.0643
     76 H          11.6370   -8.8950    2.2322 H       1  UNL1        0.0853
     77 H          15.2111   -6.0302    1.0295 H       1  UNL1        0.0639
     78 H          17.2705   -7.1318    0.3041 H       1  UNL1        0.0625
     79 H          18.5278   -9.1929   -0.1718 H       1  UNL1        0.0631
     80 H          19.7583  -11.2572   -0.6529 H       1  UNL1        0.0625
     81 H          19.8363  -13.6923   -0.7568 H       1  UNL1        0.0639
     82 H          15.7483  -13.8406    0.6987 H       1  UNL1        0.0660
     83 H          13.4020   -9.9366    1.5969 H       1  UNL1        0.0660
     84 H          15.9301  -16.0326    0.5902 H       1  UNL1        0.0853
     85 H          14.9791  -18.1956    0.8769 H       1  UNL1        0.0624
     86 H          14.1859  -20.4645    1.3818 H       1  UNL1        0.0618
     87 H          15.6367  -22.4090    1.0442 H       1  UNL1        0.0636
     88 H          18.7575  -19.8237   -0.4117 H       1  UNL1        0.0643
     89 H          19.1752  -21.9990   -0.1040 H       1  UNL1        0.1548
     90 H          19.0135  -25.4092   -0.4307 H       1  UNL1        0.0371
     91 H          19.6078  -24.7465    1.0846 H       1  UNL1        0.0371
     92 H          20.0352  -23.6350   -1.7382 H       1  UNL1        0.0431
     93 H          21.2383  -24.5560   -0.8478 H       1  UNL1        0.0431
     94 H          20.6181  -23.0210    1.8513 H       1  UNL1        0.0424
     95 H          21.6134  -21.6455    1.6069 H       1  UNL1        0.0424
     96 H          22.6204  -24.4536    0.8788 H       1  UNL1        0.0242
     97 H          22.7566  -23.7593    2.4914 H       1  UNL1        0.0242
     98 H          23.5701  -22.9768    1.1291 H       1  UNL1        0.0242
     99 H          21.4415  -21.8403   -2.0905 H       1  UNL1        0.0424
    100 H          22.7701  -22.6518   -1.2654 H       1  UNL1        0.0424
    101 H          21.6403  -19.8817   -0.5591 H       1  UNL1        0.0242
    102 H          23.1065  -20.2036   -1.4978 H       1  UNL1        0.0242
    103 H          23.0541  -20.6403    0.2070 H       1  UNL1        0.0242
@<TRIPOS>BOND
     1     1     2    1
     2     1    57    1
     3     1    58    1
     4     1    59    1
     5     2     3    1
     6     2    60    1
     7     2    61    1
     8     3     4    1
     9     3     6    1
    10     4     5    1
    11     4    62    1
    12     4    63    1
    13     5    64    1
    14     5    65    1
    15     5    66    1
    16     6     7    1
    17     6    67    1
    18     6    68    1
    19     7     8    1
    20     7    69    1
    21     7    70    1
    22     8     9    2
    23     8    10   am
    24    10    11    1
    25    10    71    1
    26    11    12   ar
    27    11    16   ar
    28    12    13   ar
    29    12    72    1
    30    13    14   ar
    31    13    73    1
    32    14    15   ar
    33    14    74    1
    34    15    16   ar
    35    15    17    1
    36    16    75    1
    37    17    18   ar
    38    17    21   ar
    39    18    19   ar
    40    18    76    1
    41    19    20   ar
    42    19    22    1
    43    20    21   ar
    44    22    23   ar
    45    22    35   ar
    46    23    24   ar
    47    23    77    1
    48    24    25   ar
    49    24    78    1
    50    25    26   ar
    51    25    34   ar
    52    26    27   ar
    53    26    79    1
    54    27    28   ar
    55    27    32   ar
    56    28    29   ar
    57    28    80    1
    58    29    30   ar
    59    29    81    1
    60    30    31   ar
    61    30    36    1
    62    31    32   ar
    63    31    82    1
    64    32    33   ar
    65    33    34   ar
    66    34    35   ar
    67    35    83    1
    68    36    37   ar
    69    36    40   ar
    70    37    38   ar
    71    37    84    1
    72    38    39   ar
    73    38    41    1
    74    39    40   ar
    75    41    42   ar
    76    41    46   ar
    77    42    43   ar
    78    42    85    1
    79    43    44   ar
    80    43    86    1
    81    44    45   ar
    82    44    87    1
    83    45    46   ar
    84    45    47    1
    85    46    88    1
    86    47    48   am
    87    47    89    1
    88    48    49    2
    89    48    50    1
    90    50    51    1
    91    50    90    1
    92    50    91    1
    93    51    52    1
    94    51    92    1
    95    51    93    1
    96    52    53    1
    97    52    55    1
    98    53    54    1
    99    53    94    1
   100    53    95    1
   101    54    96    1
   102    54    97    1
   103    54    98    1
   104    55    56    1
   105    55    99    1
   106    55   100    1
   107    56   101    1
   108    56   102    1
   109    56   103    1
