3MIJ_R14_A_30
 OpenBabel03221817303D

103109  0  0  0  0  0  0  0  0999 V2000
    7.8677   -1.0379    3.2743 C   0  0  0  0  0  0  0  0  0  0  0  0
    6.9498   -1.3982    4.4368 C   0  0  0  0  0  0  0  0  0  0  0  0
    7.6325   -2.1027    5.5389 N   0  0  0  0  0  0  0  0  0  0  0  0
    8.7736   -1.3520    6.1051 C   0  0  0  0  0  0  0  0  0  0  0  0
    8.4342   -0.0400    6.8106 C   0  0  0  0  0  0  0  0  0  0  0  0
    6.6931   -2.4989    6.6128 C   0  0  0  0  0  0  0  0  0  0  0  0
    5.5817   -3.4528    6.1802 C   0  0  0  0  0  0  0  0  0  0  0  0
    6.0787   -4.8231    5.7590 C   0  0  0  0  0  0  0  0  0  0  0  0
    5.5875   -5.8197    6.2830 O   0  0  0  0  0  0  0  0  0  0  0  0
    7.0437   -4.7999    4.7683 N   0  0  0  0  0  0  0  0  0  0  0  0
    7.6543   -5.9329    4.1886 C   0  0  0  0  0  0  0  0  0  0  0  0
    7.0916   -7.2058    4.2957 C   0  0  0  0  0  0  0  0  0  0  0  0
    7.7744   -8.3235    3.8361 C   0  0  0  0  0  0  0  0  0  0  0  0
    9.0255   -8.1748    3.2502 C   0  0  0  0  0  0  0  0  0  0  0  0
    9.6020   -6.9040    3.0821 C   0  0  0  0  0  0  0  0  0  0  0  0
    8.8860   -5.7786    3.5268 C   0  0  0  0  0  0  0  0  0  0  0  0
   10.9419   -6.7817    2.5240 C   0  0  0  0  0  0  0  0  0  0  0  0
   11.7713   -7.8277    2.1908 C   0  0  0  0  0  0  0  0  0  0  0  0
   12.9437   -7.2498    1.7835 N   0  0  0  0  0  0  0  0  0  0  0  0
   12.8174   -5.8988    1.8364 N   0  0  0  0  0  0  0  0  0  0  0  0
   11.6031   -5.6067    2.2927 N   0  0  0  0  0  0  0  0  0  0  0  0
   14.1420   -7.8928    1.3658 C   0  0  0  0  0  0  0  0  0  0  0  0
   15.2438   -7.1173    1.0005 C   0  0  0  0  0  0  0  0  0  0  0  0
   16.4178   -7.7452    0.5877 C   0  0  0  0  0  0  0  0  0  0  0  0
   16.4956   -9.1439    0.5392 C   0  0  0  0  0  0  0  0  0  0  0  0
   17.6616   -9.7818    0.1216 C   0  0  0  0  0  0  0  0  0  0  0  0
   17.7172  -11.1734    0.0728 C   0  0  0  0  0  0  0  0  0  0  0  0
   18.8792  -11.8254   -0.3559 C   0  0  0  0  0  0  0  0  0  0  0  0
   18.9203  -13.2123   -0.4157 C   0  0  0  0  0  0  0  0  0  0  0  0
   17.7961  -13.9573   -0.0435 C   0  0  0  0  0  0  0  0  0  0  0  0
   16.6393  -13.2947    0.3979 C   0  0  0  0  0  0  0  0  0  0  0  0
   16.5763  -11.9033    0.4603 C   0  0  0  0  0  0  0  0  0  0  0  0
   15.4471  -11.2919    0.8710 N   0  0  0  0  0  0  0  0  0  0  0  0
   15.3988   -9.9437    0.9079 C   0  0  0  0  0  0  0  0  0  0  0  0
   14.2356   -9.2977    1.3178 C   0  0  0  0  0  0  0  0  0  0  0  0
   17.8549  -15.3709   -0.1277 N   0  0  0  0  0  0  0  0  0  0  0  0
   16.8972  -16.3019    0.2008 C   0  0  0  0  0  0  0  0  0  0  0  0
   17.4914  -17.5184   -0.0473 C   0  0  0  0  0  0  0  0  0  0  0  0
   18.7531  -17.3085   -0.5313 N   0  0  0  0  0  0  0  0  0  0  0  0
   18.9664  -16.0036   -0.5772 N   0  0  0  0  0  0  0  0  0  0  0  0
   16.9411  -18.8373    0.2005 C   0  0  0  0  0  0  0  0  0  0  0  0
   15.6459  -19.0324    0.6931 C   0  0  0  0  0  0  0  0  0  0  0  0
   15.1853  -20.3197    0.9793 C   0  0  0  0  0  0  0  0  0  0  0  0
   16.0109  -21.4257    0.7774 C   0  0  0  0  0  0  0  0  0  0  0  0
   17.2984  -21.2491    0.2828 C   0  0  0  0  0  0  0  0  0  0  0  0
   17.7523  -19.9590   -0.0139 C   0  0  0  0  0  0  0  0  0  0  0  0
   18.2178  -22.2901    0.1017 N   0  0  0  0  0  0  0  0  0  0  0  0
   18.0160  -23.6472    0.1856 C   0  0  0  0  0  0  0  0  0  0  0  0
   16.9387  -24.2077    0.3873 O   0  0  0  0  0  0  0  0  0  0  0  0
   19.2888  -24.4739    0.0738 C   0  0  0  0  0  0  0  0  0  0  0  0
   20.4262  -23.8299   -0.7302 C   0  0  0  0  0  0  0  0  0  0  0  0
   20.9405  -22.5469   -0.1810 N   0  0  0  0  0  0  0  0  0  0  0  0
   21.4250  -22.6505    1.2095 C   0  0  0  0  0  0  0  0  0  0  0  0
   22.6634  -23.5103    1.4292 C   0  0  0  0  0  0  0  0  0  0  0  0
   21.9266  -21.9680   -1.1141 C   0  0  0  0  0  0  0  0  0  0  0  0
   22.4566  -20.5960   -0.7083 C   0  0  0  0  0  0  0  0  0  0  0  0
    7.2660   -0.7806    2.3964 H   0  0  0  0  0  0  0  0  0  0  0  0
    8.5114   -1.8804    2.9983 H   0  0  0  0  0  0  0  0  0  0  0  0
    8.4969   -0.1753    3.5110 H   0  0  0  0  0  0  0  0  0  0  0  0
    6.1921   -2.0617    4.0075 H   0  0  0  0  0  0  0  0  0  0  0  0
    6.4198   -0.5073    4.7897 H   0  0  0  0  0  0  0  0  0  0  0  0
    9.5116   -1.1574    5.3191 H   0  0  0  0  0  0  0  0  0  0  0  0
    9.3032   -1.9991    6.8175 H   0  0  0  0  0  0  0  0  0  0  0  0
    7.7442    0.5787    6.2308 H   0  0  0  0  0  0  0  0  0  0  0  0
    9.3454    0.5463    6.9668 H   0  0  0  0  0  0  0  0  0  0  0  0
    7.9884   -0.2240    7.7936 H   0  0  0  0  0  0  0  0  0  0  0  0
    6.2235   -1.6110    7.0545 H   0  0  0  0  0  0  0  0  0  0  0  0
    7.2599   -2.9935    7.4136 H   0  0  0  0  0  0  0  0  0  0  0  0
    4.9494   -3.0434    5.3874 H   0  0  0  0  0  0  0  0  0  0  0  0
    4.9187   -3.6039    7.0420 H   0  0  0  0  0  0  0  0  0  0  0  0
    7.5115   -3.9033    4.6333 H   0  0  0  0  0  0  0  0  0  0  0  0
    6.1183   -7.3617    4.7497 H   0  0  0  0  0  0  0  0  0  0  0  0
    7.3413   -9.3111    3.9647 H   0  0  0  0  0  0  0  0  0  0  0  0
    9.5415   -9.0780    2.9425 H   0  0  0  0  0  0  0  0  0  0  0  0
    9.3170   -4.7858    3.4064 H   0  0  0  0  0  0  0  0  0  0  0  0
   11.6370   -8.8950    2.2322 H   0  0  0  0  0  0  0  0  0  0  0  0
   15.2111   -6.0302    1.0295 H   0  0  0  0  0  0  0  0  0  0  0  0
   17.2705   -7.1318    0.3041 H   0  0  0  0  0  0  0  0  0  0  0  0
   18.5278   -9.1929   -0.1718 H   0  0  0  0  0  0  0  0  0  0  0  0
   19.7583  -11.2572   -0.6529 H   0  0  0  0  0  0  0  0  0  0  0  0
   19.8363  -13.6923   -0.7568 H   0  0  0  0  0  0  0  0  0  0  0  0
   15.7483  -13.8406    0.6987 H   0  0  0  0  0  0  0  0  0  0  0  0
   13.4020   -9.9366    1.5969 H   0  0  0  0  0  0  0  0  0  0  0  0
   15.9301  -16.0326    0.5902 H   0  0  0  0  0  0  0  0  0  0  0  0
   14.9791  -18.1956    0.8769 H   0  0  0  0  0  0  0  0  0  0  0  0
   14.1859  -20.4645    1.3818 H   0  0  0  0  0  0  0  0  0  0  0  0
   15.6367  -22.4090    1.0442 H   0  0  0  0  0  0  0  0  0  0  0  0
   18.7575  -19.8237   -0.4117 H   0  0  0  0  0  0  0  0  0  0  0  0
   19.1752  -21.9990   -0.1040 H   0  0  0  0  0  0  0  0  0  0  0  0
   19.0135  -25.4092   -0.4307 H   0  0  0  0  0  0  0  0  0  0  0  0
   19.6078  -24.7465    1.0846 H   0  0  0  0  0  0  0  0  0  0  0  0
   20.0352  -23.6350   -1.7382 H   0  0  0  0  0  0  0  0  0  0  0  0
   21.2383  -24.5560   -0.8478 H   0  0  0  0  0  0  0  0  0  0  0  0
   20.6181  -23.0210    1.8513 H   0  0  0  0  0  0  0  0  0  0  0  0
   21.6134  -21.6455    1.6069 H   0  0  0  0  0  0  0  0  0  0  0  0
   22.6204  -24.4536    0.8788 H   0  0  0  0  0  0  0  0  0  0  0  0
   22.7566  -23.7593    2.4914 H   0  0  0  0  0  0  0  0  0  0  0  0
   23.5701  -22.9768    1.1291 H   0  0  0  0  0  0  0  0  0  0  0  0
   21.4415  -21.8403   -2.0905 H   0  0  0  0  0  0  0  0  0  0  0  0
   22.7701  -22.6518   -1.2654 H   0  0  0  0  0  0  0  0  0  0  0  0
   21.6403  -19.8817   -0.5591 H   0  0  0  0  0  0  0  0  0  0  0  0
   23.1065  -20.2036   -1.4978 H   0  0  0  0  0  0  0  0  0  0  0  0
   23.0541  -20.6403    0.2070 H   0  0  0  0  0  0  0  0  0  0  0  0
  1  2  1  0  0  0  0
  1 57  1  0  0  0  0
  1 58  1  0  0  0  0
  1 59  1  0  0  0  0
  2  3  1  0  0  0  0
  2 60  1  0  0  0  0
  2 61  1  0  0  0  0
  3  4  1  0  0  0  0
  3  6  1  0  0  0  0
  4  5  1  0  0  0  0
  4 62  1  0  0  0  0
  4 63  1  0  0  0  0
  5 64  1  0  0  0  0
  5 65  1  0  0  0  0
  5 66  1  0  0  0  0
  6  7  1  0  0  0  0
  6 67  1  0  0  0  0
  6 68  1  0  0  0  0
  7  8  1  0  0  0  0
  7 69  1  0  0  0  0
  7 70  1  0  0  0  0
  8  9  2  0  0  0  0
  8 10  1  0  0  0  0
 10 11  1  0  0  0  0
 10 71  1  0  0  0  0
 11 12  2  0  0  0  0
 11 16  1  0  0  0  0
 12 13  1  0  0  0  0
 12 72  1  0  0  0  0
 13 14  2  0  0  0  0
 13 73  1  0  0  0  0
 14 15  1  0  0  0  0
 14 74  1  0  0  0  0
 15 16  2  0  0  0  0
 15 17  1  0  0  0  0
 16 75  1  0  0  0  0
 17 18  2  0  0  0  0
 17 21  1  0  0  0  0
 18 19  1  0  0  0  0
 18 76  1  0  0  0  0
 19 20  1  0  0  0  0
 19 22  1  0  0  0  0
 20 21  2  0  0  0  0
 22 23  2  0  0  0  0
 22 35  1  0  0  0  0
 23 24  1  0  0  0  0
 23 77  1  0  0  0  0
 24 25  2  0  0  0  0
 24 78  1  0  0  0  0
 25 26  1  0  0  0  0
 25 34  1  0  0  0  0
 26 27  2  0  0  0  0
 26 79  1  0  0  0  0
 27 28  1  0  0  0  0
 27 32  1  0  0  0  0
 28 29  2  0  0  0  0
 28 80  1  0  0  0  0
 29 30  1  0  0  0  0
 29 81  1  0  0  0  0
 30 31  2  0  0  0  0
 30 36  1  0  0  0  0
 31 32  1  0  0  0  0
 31 82  1  0  0  0  0
 32 33  2  0  0  0  0
 33 34  1  0  0  0  0
 34 35  2  0  0  0  0
 35 83  1  0  0  0  0
 36 37  1  0  0  0  0
 36 40  1  0  0  0  0
 37 38  2  0  0  0  0
 37 84  1  0  0  0  0
 38 39  1  0  0  0  0
 38 41  1  0  0  0  0
 39 40  2  0  0  0  0
 41 42  2  0  0  0  0
 41 46  1  0  0  0  0
 42 43  1  0  0  0  0
 42 85  1  0  0  0  0
 43 44  2  0  0  0  0
 43 86  1  0  0  0  0
 44 45  1  0  0  0  0
 44 87  1  0  0  0  0
 45 46  2  0  0  0  0
 45 47  1  0  0  0  0
 46 88  1  0  0  0  0
 47 48  1  0  0  0  0
 47 89  1  0  0  0  0
 48 49  2  0  0  0  0
 48 50  1  0  0  0  0
 50 51  1  0  0  0  0
 50 90  1  0  0  0  0
 50 91  1  0  0  0  0
 51 52  1  0  0  0  0
 51 92  1  0  0  0  0
 51 93  1  0  0  0  0
 52 53  1  0  0  0  0
 52 55  1  0  0  0  0
 53 54  1  0  0  0  0
 53 94  1  0  0  0  0
 53 95  1  0  0  0  0
 54 96  1  0  0  0  0
 54 97  1  0  0  0  0
 54 98  1  0  0  0  0
 55 56  1  0  0  0  0
 55 99  1  0  0  0  0
 55100  1  0  0  0  0
 56101  1  0  0  0  0
 56102  1  0  0  0  0
 56103  1  0  0  0  0
M  END
$$$$
