REMARK  12 active torsions:
REMARK  status: ('A' for Active; 'I' for Inactive)
REMARK    1  A    between atoms: CA_2  and  N_1 
REMARK    2  A    between atoms: CA_2  and  C_3 
REMARK    3  A    between atoms: CA_2  and  C_6 
REMARK    4  A    between atoms: C_3  and  OXT_5 
REMARK    5  A    between atoms: C_6  and  C_7 
REMARK    6  A    between atoms: S_8  and  C_7 
REMARK    7  A    between atoms: S_8  and  C_11 
REMARK    8  A    between atoms: C_12  and  C_11 
REMARK    9  A    between atoms: C_14  and  N_19 
REMARK   10  A    between atoms: C_15  and  O_18 
REMARK   11  A    between atoms: C_16  and  O_17 
REMARK   12  A    between atoms: C_23  and  N_24 
ROOT
ATOM      1  C   UNL d   1       7.625   4.376   0.416  0.00  0.00     0.163 C 
ATOM      2  O   UNL d   1       7.212   5.297  -0.619  0.00  0.00    -0.355 OA
ATOM      3  C   UNL d   1       7.402   6.660  -0.144  0.00  0.00     0.262 C 
ATOM      4  C   UNL d   1       7.679   6.576   1.364  0.00  0.00     0.198 C 
ATOM      5  C   UNL d   1       7.347   5.133   1.710  0.00  0.00     0.180 C 
ENDROOT
BRANCH   1   6
ATOM      6  C   UNL d   1       9.063   3.933   0.141  0.00  0.00     0.086 C 
BRANCH   6   7
ATOM      7  S   UNL d   1       9.724   2.813   1.352  0.00  0.00    -0.264 SA
ATOM      8  C   UNL d   1       8.774   1.321   1.333  0.00  0.00     0.066 C 
ATOM      9  H   UNL d   1       9.677   3.370   2.575  0.00  0.00     0.081 HD
BRANCH   7  10
ATOM     10  C   UNL d   1      11.369   2.359   0.875  0.00  0.00     0.054 C 
BRANCH  10  11
ATOM     11  C   UNL d   1      12.318   3.545   0.735  0.00  0.00     0.055 C 
BRANCH  11  12
ATOM     12  CA  UNL d   1      12.402   4.435   1.982  0.00  0.00     0.315 C 
BRANCH  12  13
ATOM     13  C   UNL d   1      12.938   3.667   3.203  0.00  0.00     0.173 C 
ATOM     14  O   UNL d   1      13.775   2.780   3.159  0.00  0.00    -0.648 OA
BRANCH  13  15
ATOM     15  OXT UNL d   1      12.449   4.144   4.375  0.00  0.00    -0.775 OA
ATOM     16  HXT UNL d   1      11.794   4.856   4.255  0.00  0.00     0.167 HD
ENDBRANCH  13  15
ENDBRANCH  12  13
BRANCH  12  17
ATOM     17  N   UNL d   1      13.279   5.594   1.718  0.00  0.00     0.093 N 
ATOM     18  H1  UNL d   1      14.206   5.245   1.460  0.00  0.00     0.314 HD
ATOM     19  H2  UNL d   1      13.422   6.131   2.571  0.00  0.00     0.314 HD
ENDBRANCH  12  17
ENDBRANCH  11  12
ENDBRANCH  10  11
ENDBRANCH   7  10
ENDBRANCH   6   7
ENDBRANCH   1   6
BRANCH   5  20
ATOM     20  O   UNL d   1       8.050   4.698   2.861  0.00  0.00    -0.390 OA
ATOM     21  H   UNL d   1       7.844   5.333   3.573  0.00  0.00     0.210 HD
ENDBRANCH   5  20
BRANCH   3  22
ATOM     22  N   UNL d   1       8.396   7.306  -0.989  0.00  0.00    -0.294 N 
ATOM     23  C   UNL d   1       8.554   7.041  -2.331  0.00  0.00     0.214 A 
ATOM     24  N   UNL d   1       9.322   7.923  -2.930  0.00  0.00    -0.236 NA
ATOM     25  C   UNL d   1       9.702   8.791  -1.931  0.00  0.00     0.144 A 
ATOM     26  C   UNL d   1      10.473   9.967  -1.951  0.00  0.00     0.135 A 
ATOM     27  C   UNL d   1       9.157   8.411  -0.711  0.00  0.00     0.166 A 
ATOM     28  N   UNL d   1      10.666  10.630  -0.791  0.00  0.00    -0.228 NA
ATOM     29  C   UNL d   1      10.111  10.125   0.332  0.00  0.00     0.237 A 
ATOM     30  N   UNL d   1       9.323   9.037   0.467  0.00  0.00    -0.222 NA
BRANCH  26  31
ATOM     31  N   UNL d   1      11.000  10.511  -3.120  0.00  0.00    -0.285 NA
ATOM     32  H   UNL d   1      10.515  10.190  -3.951  0.00  0.00     0.125 HD
ATOM     33  H   UNL d   1      11.148  11.508  -3.029  0.00  0.00     0.125 HD
ENDBRANCH  26  31
ENDBRANCH   3  22
BRANCH   4  34
ATOM     34  O   UNL d   1       6.848   7.439   2.156  0.00  0.00    -0.388 OA
ATOM     35  H   UNL d   1       5.910   7.245   1.962  0.00  0.00     0.210 HD
ENDBRANCH   4  34
TORSDOF 12
