@<TRIPOS>MOLECULE
ligand.pdb
 51 53 0 0 0
SMALL
GASTEIGER

@<TRIPOS>ATOM
      1 N          13.2788    5.5944    1.7176 N.3     1  UNL1       -0.3184
      2 CA         12.4019    4.4354    1.9821 C.3     1  UNL1        0.1039
      3 HA         11.4059    4.8247    2.2152 H       1  UNL1        0.0574
      4 C          12.9376    3.6666    3.2025 C.2     1  UNL1        0.3217
      5 O          13.7755    2.7796    3.1594 O.2     1  UNL1       -0.2493
      6 OXT        12.4487    4.1436    4.3754 O.3     1  UNL1       -0.4795
      7 C          12.3177    3.5448    0.7349 C.3     1  UNL1       -0.0199
      8 C          11.3686    2.3588    0.8753 C.3     1  UNL1       -0.0230
      9 S           9.7241    2.8126    1.3522 S.3     1  UNL1       -0.2533
     10 H           9.6765    3.3699    2.5753 H       1  UNL1        0.0821
     11 C           8.7742    1.3210    1.3334 C.3     1  UNL1       -0.0366
     12 C           9.0634    3.9334    0.1412 C.3     1  UNL1        0.0041
     13 C           7.6255    4.3760    0.4162 C.3     1  UNL1        0.0970
     14 H           6.9735    3.4976    0.3534 H       1  UNL1        0.0631
     15 O           7.2121    5.2974   -0.6191 O.3     1  UNL1       -0.3472
     16 C           7.4016    6.6600   -0.1444 C.3     1  UNL1        0.1666
     17 H           6.4696    7.2046   -0.3384 H       1  UNL1        0.0866
     18 C           7.6792    6.5759    1.3642 C.3     1  UNL1        0.1285
     19 H           8.7166    6.8034    1.6276 H       1  UNL1        0.0665
     20 C           7.3469    5.1332    1.7101 C.3     1  UNL1        0.1121
     21 H           6.2779    5.0409    1.9411 H       1  UNL1        0.0647
     22 O           8.0495    4.6979    2.8607 O.3     1  UNL1       -0.3865
     23 O           6.8475    7.4386    2.1558 O.3     1  UNL1       -0.3847
     24 N           8.3959    7.3055   -0.9890 N.ar    1  UNL1       -0.2855
     25 C           8.5537    7.0408   -2.3309 C.ar    1  UNL1        0.1004
     26 N           9.3217    7.9234   -2.9304 N.ar    1  UNL1       -0.2306
     27 C           9.7020    8.7908   -1.9311 C.ar    1  UNL1        0.1473
     28 C          10.4729    9.9671   -1.9512 C.ar    1  UNL1        0.1472
     29 N          10.9998   10.5112   -3.1201 N.pl3   1  UNL1       -0.3413
     30 N          10.6658   10.6301   -0.7907 N.ar    1  UNL1       -0.2188
     31 C          10.1106   10.1254    0.3323 C.ar    1  UNL1        0.1205
     32 N           9.3228    9.0365    0.4665 N.ar    1  UNL1       -0.2159
     33 C           9.1570    8.4112   -0.7114 C.ar    1  UNL1        0.1674
     34 H1         14.2061    5.2452    1.4603 H       1  UNL1        0.1190
     35 H2         13.4222    6.1313    2.5712 H       1  UNL1        0.1190
     36 HXT        11.7941    4.8557    4.2546 H       1  UNL1        0.2951
     37 H          13.3125    3.1528    0.4845 H       1  UNL1        0.0293
     38 H          12.0024    4.1526   -0.1225 H       1  UNL1        0.0293
     39 H          11.7253    1.6575    1.6359 H       1  UNL1        0.0360
     40 H          11.2948    1.8166   -0.0727 H       1  UNL1        0.0360
     41 H           7.7864    1.5353    1.7439 H       1  UNL1        0.0324
     42 H           9.2848    0.5932    1.9673 H       1  UNL1        0.0324
     43 H           8.7003    0.9503    0.3105 H       1  UNL1        0.0324
     44 H           9.1250    3.4395   -0.8349 H       1  UNL1        0.0385
     45 H           9.7306    4.7990    0.0993 H       1  UNL1        0.0385
     46 H           7.8436    5.3330    3.5728 H       1  UNL1        0.2100
     47 H           5.9098    7.2452    1.9623 H       1  UNL1        0.2101
     48 H           8.0586    6.2095   -2.8187 H       1  UNL1        0.1030
     49 H          10.5146   10.1898   -3.9511 H       1  UNL1        0.1438
     50 H          11.1478   11.5076   -3.0286 H       1  UNL1        0.1438
     51 H          10.3207   10.6760    1.2457 H       1  UNL1        0.1048
@<TRIPOS>BOND
     1     1    34    1
     2     1    35    1
     3     2     4    1
     4     2     7    1
     5     2     3    1
     6     2     1    1
     7     4     5    2
     8     4     6    1
     9     6    36    1
    10     7     8    1
    11     7    37    1
    12     7    38    1
    13     8    39    1
    14     8    40    1
    15     9    11    1
    16     9    12    1
    17     9    10    1
    18     9     8    1
    19    11    41    1
    20    11    42    1
    21    11    43    1
    22    12    44    1
    23    12    45    1
    24    13    15    1
    25    13    20    1
    26    13    14    1
    27    13    12    1
    28    15    16    1
    29    16    17    1
    30    16    18    1
    31    16    24    1
    32    18    20    1
    33    18    23    1
    34    18    19    1
    35    20    21    1
    36    20    22    1
    37    22    46    1
    38    23    47    1
    39    24    25   ar
    40    24    33   ar
    41    25    26   ar
    42    25    48    1
    43    26    27   ar
    44    27    28   ar
    45    27    33   ar
    46    28    29    1
    47    28    30   ar
    48    29    49    1
    49    29    50    1
    50    30    31   ar
    51    31    32   ar
    52    31    51    1
    53    32    33   ar
