3TD1_GET_B_50
 OpenBabel10091713573D
Coordinates from PDB:3TD1:B:50 Model:1 without hydrogens
 34 36  0  0  0  0  0  0  0  0999 V2000
    5.8100    5.9100    8.7980 C   0  0  2  0  0  0  0  0  0  0  0  0
    6.3650    5.5730    7.5170 O   0  0  0  0  0  0  0  0  0  0  0  0
    5.8350    4.6190    9.6920 C   0  0  2  0  0  0  0  0  0  0  0  0
    7.2100    4.1320    9.8830 N   0  0  0  0  0  0  0  0  0  0  0  0
    4.9760    3.5210    9.0280 C   0  0  1  0  0  0  0  0  0  0  0  0
    4.9880    2.3390    9.8450 O   0  0  0  0  0  0  0  0  0  0  0  0
    3.5400    4.0620    8.8310 C   0  0  2  0  0  0  0  0  0  0  0  0
    2.7300    3.0530    8.2030 O   0  0  0  0  0  0  0  0  0  0  0  0
    3.5830    5.3650    7.9450 C   0  0  2  0  0  0  0  0  0  0  0  0
    4.4330    6.3840    8.5910 O   0  0  0  0  0  0  0  0  0  0  0  0
    2.1700    5.9690    7.7340 C   0  0  2  0  0  0  0  0  0  0  0  0
    2.2690    7.1340    6.9190 O   0  0  0  0  0  0  0  0  0  0  0  0
    1.5310    6.3710    9.0530 C   0  0  0  0  0  0  0  0  0  0  0  0
    9.3500    7.3440    5.0240 C   0  0  2  0  0  0  0  0  0  0  0  0
   10.1120    8.3210    4.2540 N   0  0  0  0  0  0  0  0  0  0  0  0
    7.8700    7.4010    4.5180 C   0  0  0  0  0  0  0  0  0  0  0  0
    7.0560    6.3360    5.3280 C   0  0  2  0  0  0  0  0  0  0  0  0
    5.6430    6.3460    4.8980 N   0  0  0  0  0  0  0  0  0  0  0  0
    7.1200    6.6280    6.8490 C   0  0  2  0  0  0  0  0  0  0  0  0
    8.5990    6.6290    7.3100 C   0  0  2  0  0  0  0  0  0  0  0  0
    8.6340    6.9170    8.7040 O   0  0  0  0  0  0  0  0  0  0  0  0
    9.4180    7.7080    6.5640 C   0  0  1  0  0  0  0  0  0  0  0  0
   10.7760    7.6240    7.0570 O   0  0  0  0  0  0  0  0  0  0  0  0
   11.4640    8.8890    7.2660 C   0  0  2  0  0  0  0  0  0  0  0  0
   12.9270    8.6700    6.7380 C   0  0  2  0  0  0  0  0  0  0  0  0
   12.8990    8.3670    5.3530 O   0  0  0  0  0  0  0  0  0  0  0  0
   13.5910    7.4990    7.5610 C   0  0  1  0  0  0  0  0  0  0  0  0
   14.9830    7.2400    7.0850 N   0  0  0  0  0  0  0  0  0  0  0  0
   14.9620    6.0420    6.2240 C   0  0  0  0  0  0  0  0  0  0  0  0
   13.5970    7.8840    9.0800 C   0  0  2  0  0  0  0  0  0  0  0  0
   14.3730    9.0640    9.2710 O   0  0  0  0  0  0  0  0  0  0  0  0
   14.2040    6.7870    9.9460 C   0  0  0  0  0  0  0  0  0  0  0  0
   12.1270    8.1510    9.5330 C   0  0  0  0  0  0  0  0  0  0  0  0
   11.5030    9.2070    8.7000 O   0  0  0  0  0  0  0  0  0  0  0  0
  1  2  1  6  0  0  0
  1  3  1  0  0  0  0
  1 10  1  0  0  0  0
  3  4  1  6  0  0  0
  3  5  1  0  0  0  0
  5  6  1  1  0  0  0
  5  7  1  0  0  0  0
  7  8  1  6  0  0  0
  7  9  1  0  0  0  0
  9 10  1  0  0  0  0
  9 11  1  1  0  0  0
 11 12  1  0  0  0  0
 11 13  1  1  0  0  0
 14 15  1  6  0  0  0
 14 16  1  0  0  0  0
 14 22  1  0  0  0  0
 16 17  1  0  0  0  0
 17 18  1  6  0  0  0
 17 19  1  0  0  0  0
 19  2  1  1  0  0  0
 19 20  1  0  0  0  0
 20 21  1  1  0  0  0
 20 22  1  0  0  0  0
 22 23  1  1  0  0  0
 24 23  1  1  0  0  0
 24 25  1  0  0  0  0
 24 34  1  0  0  0  0
 25 26  1  6  0  0  0
 25 27  1  0  0  0  0
 27 28  1  6  0  0  0
 27 30  1  0  0  0  0
 28 29  1  0  0  0  0
 30 31  1  0  0  0  0
 30 32  1  1  0  0  0
 30 33  1  0  0  0  0
 33 34  1  0  0  0  0
A    1
C11
A    2
O11
A    3
C21
A    4
N21
A    5
C31
A    6
O31
A    7
C41
A    8
O41
A    9
C51
A   10
O51
A   11
C61
A   12
O61
A   13
C71
A   14
C12
A   15
N12
A   16
C22
A   17
C32
A   18
N32
A   19
C42
A   20
C52
A   21
O52
A   22
C62
A   23
O62
A   24
C13
A   25
C23
A   26
O23
A   27
C33
A   28
N33
A   29
C93
A   30
C43
A   31
O43
A   32
C83
A   33
C53
A   34
O53
M  END
>  <InstanceId>
3TD1_GET_B_50

>  <ChemCompId>
GET

>  <PdbId>
3TD1

>  <ChainId>
B

>  <ResidueNumber>
50

>  <InsertionCode>


>  <Model>
1

>  <AltIds>


>  <MissingHeavyAtoms>
0

>  <ObservedFormula>
C20 N4 O10

>  <Name>
GENETICIN

>  <SystematicName>
(2R,3S,4R,5R,6S)-5-amino-6-[(1R,2S,3S,4R,6S)-4,6-diamino-3-[(2R,3R,4R,5R)-3,5-dihydroxy-5-methyl-4-methylamino-oxan-2-yl]oxy-2-hydroxy-cyclohexyl]oxy-2-(1-hydroxyethyl)oxane-3,4-diol

>  <Synonyms>
G418

>  <Type>
NON-POLYMER

>  <Formula>
C20 H40 N4 O10

>  <MolecularWeight>
496.552

>  <ModifiedDate>
2011-06-04

>  <Parent>


>  <OneLetterCode>


>  <SubcomponentList>


>  <AmbiguousFlag>
N

>  <InChI>
InChI=1S/C20H40N4O10/c1-6(25)14-11(27)10(26)9(23)18(32-14)33-15-7(21)4-8(22)16(12(15)28)34-19-13(29)17(24-3)20(2,30)5-31-19/h6-19,24-30H,4-5,21-23H2,1-3H3/t6-,7+,8-,9-,10-,11+,12+,13-,14-,15-,16+,17-,18-,19-,20+/m1/s1

>  <InChIKey>
BRZYSWJRSDMWLG-DJWUNRQOSA-N

>  <SMILES>
C[C@H]([C@@H]1[C@H]([C@@H]([C@H]([C@H](O1)O[C@@H]2[C@H](C[C@H]([C@@H]([C@H]2O)O[C@@H]3[C@@H]([C@H]([C@@](CO3)(C)O)NC)O)N)N)N)O)O)O

$$$$
