3TD1_GET_B_50
 OpenBabel10091713573D
Coordinates from PDB:3TD1:B:50 Model:1 without hydrogens
 74 76  0  0  1  0  0  0  0  0999 V2000
    5.8100    5.9100    8.7980 C   0  0  2  0  0  0  0  0  0  0  0  0
    6.3650    5.5730    7.5170 O   0  0  0  0  0  0  0  0  0  0  0  0
    5.8350    4.6190    9.6920 C   0  0  2  0  0  0  0  0  0  0  0  0
    7.2100    4.1320    9.8830 N   0  0  0  0  0  0  0  0  0  0  0  0
    4.9760    3.5210    9.0280 C   0  0  1  0  0  0  0  0  0  0  0  0
    4.9880    2.3390    9.8450 O   0  0  0  0  0  0  0  0  0  0  0  0
    3.5400    4.0620    8.8310 C   0  0  2  0  0  0  0  0  0  0  0  0
    2.7300    3.0530    8.2030 O   0  0  0  0  0  0  0  0  0  0  0  0
    3.5830    5.3650    7.9450 C   0  0  2  0  0  0  0  0  0  0  0  0
    4.4330    6.3840    8.5910 O   0  0  0  0  0  0  0  0  0  0  0  0
    2.1700    5.9690    7.7340 C   0  0  2  0  0  0  0  0  0  0  0  0
    2.2690    7.1340    6.9190 O   0  0  0  0  0  0  0  0  0  0  0  0
    1.5310    6.3710    9.0530 C   0  0  0  0  0  0  0  0  0  0  0  0
    9.3500    7.3440    5.0240 C   0  0  2  0  0  0  0  0  0  0  0  0
   10.1120    8.3210    4.2540 N   0  0  0  0  0  0  0  0  0  0  0  0
    7.8700    7.4010    4.5180 C   0  0  0  0  0  0  0  0  0  0  0  0
    7.0560    6.3360    5.3280 C   0  0  2  0  0  0  0  0  0  0  0  0
    5.6430    6.3460    4.8980 N   0  0  0  0  0  0  0  0  0  0  0  0
    7.1200    6.6280    6.8490 C   0  0  2  0  0  0  0  0  0  0  0  0
    8.5990    6.6290    7.3100 C   0  0  2  0  0  0  0  0  0  0  0  0
    8.6340    6.9170    8.7040 O   0  0  0  0  0  0  0  0  0  0  0  0
    9.4180    7.7080    6.5640 C   0  0  1  0  0  0  0  0  0  0  0  0
   10.7760    7.6240    7.0570 O   0  0  0  0  0  0  0  0  0  0  0  0
   11.4640    8.8890    7.2660 C   0  0  2  0  0  0  0  0  0  0  0  0
   12.9270    8.6700    6.7380 C   0  0  2  0  0  0  0  0  0  0  0  0
   12.8990    8.3670    5.3530 O   0  0  0  0  0  0  0  0  0  0  0  0
   13.5910    7.4990    7.5610 C   0  0  1  0  0  0  0  0  0  0  0  0
   14.9830    7.2400    7.0850 N   0  0  0  0  0  0  0  0  0  0  0  0
   14.9620    6.0420    6.2240 C   0  0  0  0  0  0  0  0  0  0  0  0
   13.5970    7.8840    9.0800 C   0  0  2  0  0  0  0  0  0  0  0  0
   14.3730    9.0640    9.2710 O   0  0  0  0  0  0  0  0  0  0  0  0
   14.2040    6.7870    9.9460 C   0  0  0  0  0  0  0  0  0  0  0  0
   12.1270    8.1510    9.5330 C   0  0  0  0  0  0  0  0  0  0  0  0
   11.5030    9.2070    8.7000 O   0  0  0  0  0  0  0  0  0  0  0  0
    6.3703    6.6809    9.2845 H   0  0  0  0  0  0  0  0  0  0  0  0
    5.4341    4.8625   10.6537 H   0  0  0  0  0  0  0  0  0  0  0  0
    7.6148    3.8928    8.9778 H   0  0  0  0  0  0  0  0  0  0  0  0
    7.1979    3.3046   10.4794 H   0  0  0  0  0  0  0  0  0  0  0  0
    5.3755    3.2593    8.0705 H   0  0  0  0  0  0  0  0  0  0  0  0
    4.6298    2.5483   10.7218 H   0  0  0  0  0  0  0  0  0  0  0  0
    3.1124    4.3068    9.7808 H   0  0  0  0  0  0  0  0  0  0  0  0
    3.1099    2.8241    7.3403 H   0  0  0  0  0  0  0  0  0  0  0  0
    3.9825    5.0858    6.9925 H   0  0  0  0  0  0  0  0  0  0  0  0
    1.5647    5.2204    7.2669 H   0  0  0  0  0  0  0  0  0  0  0  0
    2.8217    7.7946    7.3651 H   0  0  0  0  0  0  0  0  0  0  0  0
    2.1310    7.1199    9.5264 H   0  0  0  0  0  0  0  0  0  0  0  0
    1.4605    5.5147    9.6908 H   0  0  0  0  0  0  0  0  0  0  0  0
    0.5516    6.7614    8.8705 H   0  0  0  0  0  0  0  0  0  0  0  0
    9.7499    6.3598    4.8966 H   0  0  0  0  0  0  0  0  0  0  0  0
    9.7121    9.2492    4.3918 H   0  0  0  0  0  0  0  0  0  0  0  0
   10.0742    8.0780    3.2641 H   0  0  0  0  0  0  0  0  0  0  0  0
    7.8318    7.1732    3.4732 H   0  0  0  0  0  0  0  0  0  0  0  0
    7.4595    8.3787    4.6610 H   0  0  0  0  0  0  0  0  0  0  0  0
    7.4898    5.3764    5.1384 H   0  0  0  0  0  0  0  0  0  0  0  0
    5.2380    7.2638    5.0824 H   0  0  0  0  0  0  0  0  0  0  0  0
    5.1251    5.6357    5.4153 H   0  0  0  0  0  0  0  0  0  0  0  0
    6.7040    7.5848    7.0863 H   0  0  0  0  0  0  0  0  0  0  0  0
    9.0257    5.6709    7.0980 H   0  0  0  0  0  0  0  0  0  0  0  0
    8.2414    7.7895    8.8639 H   0  0  0  0  0  0  0  0  0  0  0  0
    9.0493    8.7012    6.7144 H   0  0  0  0  0  0  0  0  0  0  0  0
   10.9712    9.6940    6.7620 H   0  0  0  0  0  0  0  0  0  0  0  0
   13.5056    9.5607    6.8678 H   0  0  0  0  0  0  0  0  0  0  0  0
   12.3788    7.5611    5.2088 H   0  0  0  0  0  0  0  0  0  0  0  0
   13.0243    6.6026    7.4189 H   0  0  0  0  0  0  0  0  0  0  0  0
   15.5967    7.0800    7.8839 H   0  0  0  0  0  0  0  0  0  0  0  0
   14.3171    6.2150    5.3879 H   0  0  0  0  0  0  0  0  0  0  0  0
   14.6015    5.2055    6.7855 H   0  0  0  0  0  0  0  0  0  0  0  0
   15.9522    5.8367    5.8743 H   0  0  0  0  0  0  0  0  0  0  0  0
   15.2866    8.8992    8.9898 H   0  0  0  0  0  0  0  0  0  0  0  0
   15.2115    6.6040    9.6356 H   0  0  0  0  0  0  0  0  0  0  0  0
   13.6297    5.8904    9.8403 H   0  0  0  0  0  0  0  0  0  0  0  0
   14.1970    7.0963   10.9703 H   0  0  0  0  0  0  0  0  0  0  0  0
   12.1267    8.4651   10.5559 H   0  0  0  0  0  0  0  0  0  0  0  0
   11.5641    7.2480    9.4205 H   0  0  0  0  0  0  0  0  0  0  0  0
  1  2  1  0  0  0  0
  1  3  1  0  0  0  0
  1 10  1  0  0  0  0
  1 35  1  1  0  0  0
  2 19  1  0  0  0  0
  3  4  1  0  0  0  0
  3  5  1  0  0  0  0
  3 36  1  1  0  0  0
  4 37  1  0  0  0  0
  4 38  1  0  0  0  0
  5  6  1  0  0  0  0
  5  7  1  0  0  0  0
  5 39  1  6  0  0  0
  6 40  1  0  0  0  0
  7  8  1  0  0  0  0
  7  9  1  0  0  0  0
  7 41  1  1  0  0  0
  8 42  1  0  0  0  0
  9 10  1  0  0  0  0
  9 11  1  0  0  0  0
  9 43  1  6  0  0  0
 11 12  1  0  0  0  0
 11 13  1  0  0  0  0
 11 44  1  6  0  0  0
 12 45  1  0  0  0  0
 13 46  1  0  0  0  0
 13 47  1  0  0  0  0
 13 48  1  0  0  0  0
 14 15  1  0  0  0  0
 14 16  1  0  0  0  0
 14 22  1  0  0  0  0
 14 49  1  6  0  0  0
 15 50  1  0  0  0  0
 15 51  1  0  0  0  0
 16 17  1  0  0  0  0
 16 52  1  0  0  0  0
 16 53  1  0  0  0  0
 17 18  1  0  0  0  0
 17 19  1  0  0  0  0
 17 54  1  6  0  0  0
 18 55  1  0  0  0  0
 18 56  1  0  0  0  0
 19 20  1  0  0  0  0
 19 57  1  1  0  0  0
 20 21  1  0  0  0  0
 20 22  1  0  0  0  0
 20 58  1  6  0  0  0
 21 59  1  0  0  0  0
 22 23  1  0  0  0  0
 22 60  1  1  0  0  0
 23 24  1  0  0  0  0
 24 25  1  0  0  0  0
 24 34  1  0  0  0  0
 24 61  1  6  0  0  0
 25 26  1  0  0  0  0
 25 27  1  0  0  0  0
 25 62  1  1  0  0  0
 26 63  1  0  0  0  0
 27 28  1  0  0  0  0
 27 30  1  0  0  0  0
 27 64  1  6  0  0  0
 28 29  1  0  0  0  0
 28 65  1  0  0  0  0
 29 66  1  0  0  0  0
 29 67  1  0  0  0  0
 29 68  1  0  0  0  0
 30 31  1  1  0  0  0
 30 32  1  0  0  0  0
 30 33  1  0  0  0  0
 31 69  1  0  0  0  0
 32 70  1  0  0  0  0
 32 71  1  0  0  0  0
 32 72  1  0  0  0  0
 33 34  1  0  0  0  0
 33 73  1  0  0  0  0
 33 74  1  0  0  0  0
M  END
$$$$
