REMARK  6 active torsions:
REMARK  status: ('A' for Active; 'I' for Inactive)
REMARK    1  A    between atoms: C_1  and  O_2 
REMARK    2  A    between atoms: C_19  and  O_2 
REMARK    3  A    between atoms: C_9  and  C_11 
REMARK    4  A    between atoms: C_22  and  O_23 
REMARK    5  A    between atoms: C_24  and  O_23 
REMARK    6  A    between atoms: C_27  and  N_28 
ROOT
ATOM      1  C   UNL d   1       9.350   7.344   5.024  0.00  0.00     0.334 C 
ATOM      2  N   UNL d   1      10.112   8.321   4.254  0.00  0.00     0.619 N 
ATOM      3  C   UNL d   1       7.870   7.401   4.518  0.00  0.00     0.083 C 
ATOM      4  C   UNL d   1       7.056   6.336   5.328  0.00  0.00     0.334 C 
ATOM      5  N   UNL d   1       5.643   6.346   4.898  0.00  0.00     0.619 N 
ATOM      6  C   UNL d   1       7.120   6.628   6.849  0.00  0.00     0.188 C 
ATOM      7  C   UNL d   1       8.599   6.629   7.310  0.00  0.00     0.210 C 
ATOM      8  O   UNL d   1       8.634   6.917   8.704  0.00  0.00    -0.218 OA
ATOM      9  C   UNL d   1       9.418   7.708   6.564  0.00  0.00     0.188 C 
ENDROOT
BRANCH   6  10
ATOM     10  O   UNL d   1       6.365   5.573   7.517  0.00  0.00    -0.327 OA
BRANCH  10  11
ATOM     11  C   UNL d   1       5.810   5.910   8.798  0.00  0.00     0.277 C 
ATOM     12  C   UNL d   1       5.835   4.619   9.692  0.00  0.00     0.390 C 
ATOM     13  N   UNL d   1       7.210   4.132   9.883  0.00  0.00     0.624 N 
ATOM     14  C   UNL d   1       4.976   3.521   9.028  0.00  0.00     0.227 C 
ATOM     15  O   UNL d   1       4.988   2.339   9.845  0.00  0.00    -0.218 OA
ATOM     16  C   UNL d   1       3.540   4.062   8.831  0.00  0.00     0.214 C 
ATOM     17  O   UNL d   1       2.730   3.053   8.203  0.00  0.00    -0.218 OA
ATOM     18  C   UNL d   1       3.583   5.365   7.945  0.00  0.00     0.181 C 
ATOM     19  O   UNL d   1       4.433   6.384   8.591  0.00  0.00    -0.327 OA
BRANCH  18  20
ATOM     20  C   UNL d   1       2.170   5.969   7.734  0.00  0.00     0.182 C 
ATOM     21  O   UNL d   1       2.269   7.134   6.919  0.00  0.00    -0.221 OA
ATOM     22  C   UNL d   1       1.531   6.371   9.053  0.00  0.00     0.038 C 
ENDBRANCH  18  20
ENDBRANCH  10  11
ENDBRANCH   6  10
BRANCH   9  23
ATOM     23  O   UNL d   1      10.776   7.624   7.057  0.00  0.00    -0.327 OA
BRANCH  23  24
ATOM     24  C   UNL d   1      11.464   8.889   7.266  0.00  0.00     0.269 C 
ATOM     25  C   UNL d   1      12.927   8.670   6.738  0.00  0.00     0.244 C 
ATOM     26  O   UNL d   1      12.899   8.367   5.353  0.00  0.00    -0.216 OA
ATOM     27  C   UNL d   1      13.591   7.499   7.561  0.00  0.00     0.322 C 
ATOM     28  C   UNL d   1      13.597   7.884   9.080  0.00  0.00     0.189 C 
ATOM     29  O   UNL d   1      14.373   9.064   9.271  0.00  0.00    -0.221 OA
ATOM     30  C   UNL d   1      14.204   6.787   9.946  0.00  0.00     0.038 C 
ATOM     31  C   UNL d   1      12.127   8.151   9.533  0.00  0.00     0.177 C 
ATOM     32  O   UNL d   1      11.503   9.207   8.700  0.00  0.00    -0.326 OA
BRANCH  27  33
ATOM     33  N   UNL d   1      14.983   7.240   7.085  0.00  0.00     0.345 N 
ATOM     34  C   UNL d   1      14.962   6.042   6.224  0.00  0.00     0.328 C 
ENDBRANCH  27  33
ENDBRANCH  23  24
ENDBRANCH   9  23
TORSDOF 6
