@<TRIPOS>MOLECULE
3TD1_GET_B_50
 34 36 0 0 0
SMALL
GASTEIGER
****
Coordinates from PDB:3TD1:B:50 Model:1 without hydrogens
@<TRIPOS>ATOM
      1 C           5.8100    5.9100    8.7980 C.3     1  UNL1        0.2561
      2 O           6.3650    5.5730    7.5170 O.3     1  UNL1       -0.3277
      3 C           5.8350    4.6190    9.6920 C.3     1  UNL1        0.1807
      4 N           7.2100    4.1320    9.8830 N.3     1  UNL1       -0.1248
      5 C           4.9760    3.5210    9.0280 C.3     1  UNL1        0.2070
      6 O           4.9880    2.3390    9.8450 O.3     1  UNL1       -0.2186
      7 C           3.5400    4.0620    8.8310 C.3     1  UNL1        0.2132
      8 O           2.7300    3.0530    8.2030 O.3     1  UNL1       -0.2176
      9 C           3.5830    5.3650    7.9450 C.3     1  UNL1        0.1807
     10 O           4.4330    6.3840    8.5910 O.3     1  UNL1       -0.3265
     11 C           2.1700    5.9690    7.7340 C.3     1  UNL1        0.1817
     12 O           2.2690    7.1340    6.9190 O.3     1  UNL1       -0.2204
     13 C           1.5310    6.3710    9.0530 C.3     1  UNL1        0.0382
     14 C           9.3500    7.3440    5.0240 C.3     1  UNL1        0.1231
     15 N          10.1120    8.3210    4.2540 N.3     1  UNL1       -0.1302
     16 C           7.8700    7.4010    4.5180 C.3     1  UNL1        0.0432
     17 C           7.0560    6.3360    5.3280 C.3     1  UNL1        0.1231
     18 N           5.6430    6.3460    4.8980 N.3     1  UNL1       -0.1302
     19 C           7.1200    6.6280    6.8490 C.3     1  UNL1        0.1680
     20 C           8.5990    6.6290    7.3100 C.3     1  UNL1        0.2088
     21 O           8.6340    6.9170    8.7040 O.3     1  UNL1       -0.2178
     22 C           9.4180    7.7080    6.5640 C.3     1  UNL1        0.1680
     23 O          10.7760    7.6240    7.0570 O.3     1  UNL1       -0.3269
     24 C          11.4640    8.8890    7.2660 C.3     1  UNL1        0.2683
     25 C          12.9270    8.6700    6.7380 C.3     1  UNL1        0.2262
     26 O          12.8990    8.3670    5.3530 O.3     1  UNL1       -0.2161
     27 C          13.5910    7.4990    7.5610 C.3     1  UNL1        0.1384
     28 N          14.9830    7.2400    7.0850 N.3     1  UNL1       -0.2126
     29 C          14.9620    6.0420    6.2240 C.3     1  UNL1        0.1076
     30 C          13.5970    7.8840    9.0800 C.3     1  UNL1        0.1710
     31 O          14.3730    9.0640    9.2710 O.3     1  UNL1       -0.2215
     32 C          14.2040    6.7870    9.9460 C.3     1  UNL1        0.0371
     33 C          12.1270    8.1510    9.5330 C.3     1  UNL1        0.1765
     34 O          11.5030    9.2070    8.7000 O.3     1  UNL1       -0.3259
@<TRIPOS>BOND
     1     1     2    1
     2     1     3    1
     3     1    10    1
     4     3     4    1
     5     3     5    1
     6     5     6    1
     7     5     7    1
     8     7     8    1
     9     7     9    1
    10     9    10    1
    11     9    11    1
    12    11    12    1
    13    11    13    1
    14    14    15    1
    15    14    16    1
    16    14    22    1
    17    16    17    1
    18    17    18    1
    19    17    19    1
    20    19     2    1
    21    19    20    1
    22    20    21    1
    23    20    22    1
    24    22    23    1
    25    24    23    1
    26    24    25    1
    27    24    34    1
    28    25    26    1
    29    25    27    1
    30    27    28    1
    31    27    30    1
    32    28    29    1
    33    30    31    1
    34    30    32    1
    35    30    33    1
    36    33    34    1
