@<TRIPOS>MOLECULE
2ESI_KAN_A_51
 33 35 0 0 0
SMALL
GASTEIGER
****
Coordinates from PDB:2ESI:A:51 Model:1 without hydrogens
@<TRIPOS>ATOM
      1 C          26.0290    5.8230    5.4660 C.3     1  UNL1        0.2695
      2 C          26.4090    4.3600    5.1240 C.3     1  UNL1        0.2406
      3 C          26.4710    4.1370    3.5790 C.3     1  UNL1        0.2198
      4 C          25.0740    4.4870    2.9990 C.3     1  UNL1        0.2133
      5 C          24.7300    5.9800    3.3560 C.3     1  UNL1        0.1696
      6 C          23.3470    6.4060    2.8490 C.3     1  UNL1        0.1415
      7 C          29.5770    9.7380    6.5430 C.3     1  UNL1        0.1231
      8 C          28.8540    8.8470    7.5880 C.3     1  UNL1        0.1680
      9 C          28.4190    7.5390    6.8810 C.3     1  UNL1        0.2088
     10 C          27.4520    7.8480    5.6960 C.3     1  UNL1        0.1680
     11 C          28.1720    8.7750    4.6610 C.3     1  UNL1        0.1231
     12 C          28.6320   10.0760    5.3680 C.3     1  UNL1        0.0432
     13 C          29.6150    8.9290   10.0020 C.3     1  UNL1        0.2684
     14 C          31.0480    9.0150   10.6000 C.3     1  UNL1        0.2279
     15 C          31.7470    7.6180   10.5580 C.3     1  UNL1        0.1599
     16 C          30.8740    6.6110   11.3740 C.3     1  UNL1        0.2017
     17 C          29.4500    6.5710   10.7800 C.3     1  UNL1        0.1824
     18 C          28.5540    5.6450   11.5670 C.3     1  UNL1        0.2142
     19 N          22.7690    7.5570    3.6010 N.3     1  UNL1       -0.1286
     20 N          27.2910    9.1250    3.5120 N.3     1  UNL1       -0.1302
     21 N          30.0200   10.9860    7.1810 N.3     1  UNL1       -0.1302
     22 N          33.1440    7.6660   11.1050 N.3     1  UNL1       -0.1272
     23 O          24.7540    6.1760    4.8250 O.3     1  UNL1       -0.3268
     24 O          27.6990    4.0350    5.7490 O.3     1  UNL1       -0.2149
     25 O          26.8200    2.8290    3.3090 O.3     1  UNL1       -0.2174
     26 O          25.0690    4.2920    1.5780 O.3     1  UNL1       -0.2176
     27 O          27.0730    6.6250    5.0040 O.3     1  UNL1       -0.3269
     28 O          27.7610    6.7180    7.8280 O.3     1  UNL1       -0.2178
     29 O          29.7700    8.5110    8.6680 O.3     1  UNL1       -0.3269
     30 O          28.8380    7.9320   10.7510 O.3     1  UNL1       -0.3257
     31 O          31.7890    9.9520    9.8750 O.3     1  UNL1       -0.2161
     32 O          31.4490    5.3140   11.3760 O.3     1  UNL1       -0.2188
     33 O          28.0410    6.2640   12.7520 O.3     1  UNL1       -0.2176
@<TRIPOS>BOND
     1     1     2    1
     2     1    23    1
     3     1    27    1
     4     2     3    1
     5     2    24    1
     6     3     4    1
     7     3    25    1
     8     4     5    1
     9     4    26    1
    10     5     6    1
    11     5    23    1
    12     6    19    1
    13     7     8    1
    14     7    12    1
    15     7    21    1
    16     8     9    1
    17     8    29    1
    18     9    10    1
    19     9    28    1
    20    10    11    1
    21    10    27    1
    22    11    12    1
    23    11    20    1
    24    13    14    1
    25    13    29    1
    26    13    30    1
    27    14    15    1
    28    14    31    1
    29    15    16    1
    30    15    22    1
    31    16    17    1
    32    16    32    1
    33    17    18    1
    34    17    30    1
    35    18    33    1
