REMARK  6 active torsions:
REMARK  status: ('A' for Active; 'I' for Inactive)
REMARK    1  A    between atoms: C_1  and  O_27 
REMARK    2  A    between atoms: C_5  and  C_6 
REMARK    3  A    between atoms: C_8  and  O_29 
REMARK    4  A    between atoms: C_10  and  O_27 
REMARK    5  A    between atoms: C_13  and  O_29 
REMARK    6  A    between atoms: C_17  and  C_18 
ROOT
ATOM      1  C   UNL d   1      29.577   9.738   6.543  0.00  0.00     0.334 C 
ATOM      2  C   UNL d   1      28.854   8.847   7.588  0.00  0.00     0.188 C 
ATOM      3  C   UNL d   1      28.419   7.539   6.881  0.00  0.00     0.210 C 
ATOM      4  C   UNL d   1      27.452   7.848   5.696  0.00  0.00     0.188 C 
ATOM      5  C   UNL d   1      28.172   8.775   4.661  0.00  0.00     0.334 C 
ATOM      6  C   UNL d   1      28.632  10.076   5.368  0.00  0.00     0.083 C 
ATOM      7  N   UNL d   1      27.291   9.125   3.512  0.00  0.00     0.619 N 
ATOM      8  N   UNL d   1      30.020  10.986   7.181  0.00  0.00     0.619 N 
ATOM      9  O   UNL d   1      27.761   6.718   7.828  0.00  0.00    -0.218 OA
ENDROOT
BRANCH   2  10
ATOM     10  O   UNL d   1      29.770   8.511   8.668  0.00  0.00    -0.327 OA
BRANCH  10  11
ATOM     11  C   UNL d   1      29.615   8.929  10.002  0.00  0.00     0.269 C 
ATOM     12  C   UNL d   1      31.048   9.015  10.600  0.00  0.00     0.248 C 
ATOM     13  C   UNL d   1      31.747   7.618  10.558  0.00  0.00     0.369 C 
ATOM     14  O   UNL d   1      31.789   9.952   9.875  0.00  0.00    -0.216 OA
ATOM     15  C   UNL d   1      30.874   6.611  11.374  0.00  0.00     0.221 C 
ATOM     16  N   UNL d   1      33.144   7.666  11.105  0.00  0.00     0.622 N 
ATOM     17  C   UNL d   1      29.450   6.571  10.780  0.00  0.00     0.183 C 
ATOM     18  O   UNL d   1      31.449   5.314  11.376  0.00  0.00    -0.218 OA
ATOM     19  O   UNL d   1      28.838   7.932  10.751  0.00  0.00    -0.326 OA
BRANCH  17  20
ATOM     20  C   UNL d   1      28.554   5.645  11.567  0.00  0.00     0.214 C 
ATOM     21  O   UNL d   1      28.041   6.264  12.752  0.00  0.00    -0.218 OA
ENDBRANCH  17  20
ENDBRANCH  10  11
ENDBRANCH   2  10
BRANCH   4  22
ATOM     22  O   UNL d   1      27.073   6.625   5.004  0.00  0.00    -0.327 OA
BRANCH  22  23
ATOM     23  C   UNL d   1      26.029   5.823   5.466  0.00  0.00     0.270 C 
ATOM     24  C   UNL d   1      26.409   4.360   5.124  0.00  0.00     0.241 C 
ATOM     25  C   UNL d   1      26.471   4.137   3.579  0.00  0.00     0.220 C 
ATOM     26  O   UNL d   1      27.699   4.035   5.749  0.00  0.00    -0.215 OA
ATOM     27  C   UNL d   1      25.074   4.487   2.999  0.00  0.00     0.214 C 
ATOM     28  O   UNL d   1      26.820   2.829   3.309  0.00  0.00    -0.218 OA
ATOM     29  C   UNL d   1      24.730   5.980   3.356  0.00  0.00     0.190 C 
ATOM     30  O   UNL d   1      25.069   4.292   1.578  0.00  0.00    -0.218 OA
ATOM     31  O   UNL d   1      24.754   6.176   4.825  0.00  0.00    -0.327 OA
BRANCH  29  32
ATOM     32  C   UNL d   1      23.347   6.406   2.849  0.00  0.00     0.370 C 
ATOM     33  N   UNL d   1      22.769   7.557   3.601  0.00  0.00     0.621 N 
ENDBRANCH  29  32
ENDBRANCH  22  23
ENDBRANCH   4  22
TORSDOF 6
