2ESI_KAN_A_51
 OpenBabel10091713573D
Coordinates from PDB:2ESI:A:51 Model:1 without hydrogens
 33 35  0  0  0  0  0  0  0  0999 V2000
   26.0290    5.8230    5.4660 C   0  0  2  0  0  0  0  0  0  0  0  0
   26.4090    4.3600    5.1240 C   0  0  1  0  0  0  0  0  0  0  0  0
   26.4710    4.1370    3.5790 C   0  0  2  0  0  0  0  0  0  0  0  0
   25.0740    4.4870    2.9990 C   0  0  1  0  0  0  0  0  0  0  0  0
   24.7300    5.9800    3.3560 C   0  0  1  0  0  0  0  0  0  0  0  0
   23.3470    6.4060    2.8490 C   0  0  0  0  0  0  0  0  0  0  0  0
   29.5770    9.7380    6.5430 C   0  0  1  0  0  0  0  0  0  0  0  0
   28.8540    8.8470    7.5880 C   0  0  1  0  0  0  0  0  0  0  0  0
   28.4190    7.5390    6.8810 C   0  0  2  0  0  0  0  0  0  0  0  0
   27.4520    7.8480    5.6960 C   0  0  1  0  0  0  0  0  0  0  0  0
   28.1720    8.7750    4.6610 C   0  0  2  0  0  0  0  0  0  0  0  0
   28.6320   10.0760    5.3680 C   0  0  0  0  0  0  0  0  0  0  0  0
   29.6150    8.9290   10.0020 C   0  0  1  0  0  0  0  0  0  0  0  0
   31.0480    9.0150   10.6000 C   0  0  1  0  0  0  0  0  0  0  0  0
   31.7470    7.6180   10.5580 C   0  0  2  0  0  0  0  0  0  0  0  0
   30.8740    6.6110   11.3740 C   0  0  1  0  0  0  0  0  0  0  0  0
   29.4500    6.5710   10.7800 C   0  0  1  0  0  0  0  0  0  0  0  0
   28.5540    5.6450   11.5670 C   0  0  0  0  0  0  0  0  0  0  0  0
   22.7690    7.5570    3.6010 N   0  0  0  0  0  0  0  0  0  0  0  0
   27.2910    9.1250    3.5120 N   0  0  0  0  0  0  0  0  0  0  0  0
   30.0200   10.9860    7.1810 N   0  0  0  0  0  0  0  0  0  0  0  0
   33.1440    7.6660   11.1050 N   0  0  0  0  0  0  0  0  0  0  0  0
   24.7540    6.1760    4.8250 O   0  0  0  0  0  0  0  0  0  0  0  0
   27.6990    4.0350    5.7490 O   0  0  0  0  0  0  0  0  0  0  0  0
   26.8200    2.8290    3.3090 O   0  0  0  0  0  0  0  0  0  0  0  0
   25.0690    4.2920    1.5780 O   0  0  0  0  0  0  0  0  0  0  0  0
   27.0730    6.6250    5.0040 O   0  0  0  0  0  0  0  0  0  0  0  0
   27.7610    6.7180    7.8280 O   0  0  0  0  0  0  0  0  0  0  0  0
   29.7700    8.5110    8.6680 O   0  0  0  0  0  0  0  0  0  0  0  0
   28.8380    7.9320   10.7510 O   0  0  0  0  0  0  0  0  0  0  0  0
   31.7890    9.9520    9.8750 O   0  0  0  0  0  0  0  0  0  0  0  0
   31.4490    5.3140   11.3760 O   0  0  0  0  0  0  0  0  0  0  0  0
   28.0410    6.2640   12.7520 O   0  0  0  0  0  0  0  0  0  0  0  0
  1  2  1  0  0  0  0
  1 23  1  0  0  0  0
  1 27  1  6  0  0  0
  2  3  1  0  0  0  0
  2 24  1  1  0  0  0
  3  4  1  0  0  0  0
  3 25  1  1  0  0  0
  4  5  1  0  0  0  0
  4 26  1  6  0  0  0
  5  6  1  1  0  0  0
  5 23  1  0  0  0  0
  6 19  1  0  0  0  0
  7  8  1  0  0  0  0
  7 12  1  0  0  0  0
  7 21  1  1  0  0  0
  8  9  1  0  0  0  0
  8 29  1  1  0  0  0
  9 10  1  0  0  0  0
  9 28  1  1  0  0  0
 10 11  1  0  0  0  0
 10 27  1  6  0  0  0
 11 12  1  0  0  0  0
 11 20  1  6  0  0  0
 13 14  1  0  0  0  0
 13 29  1  6  0  0  0
 13 30  1  0  0  0  0
 14 15  1  0  0  0  0
 14 31  1  6  0  0  0
 15 16  1  0  0  0  0
 15 22  1  1  0  0  0
 16 17  1  0  0  0  0
 16 32  1  6  0  0  0
 17 18  1  1  0  0  0
 17 30  1  0  0  0  0
 18 33  1  0  0  0  0
A    1
C1
A    2
C2
A    3
C3
A    4
C4
A    5
C5
A    6
C6
A    7
C7
A    8
C8
A    9
C9
A   10
C10
A   11
C11
A   12
C12
A   13
C13
A   14
C14
A   15
C15
A   16
C16
A   17
C17
A   18
C18
A   19
N1
A   20
N2
A   21
N3
A   22
N4
A   23
O5
A   24
O6
A   25
O7
A   26
O8
A   27
O9
A   28
O10
A   29
O11
A   30
O12
A   31
O13
A   32
O14
A   33
O15
M  END
>  <InstanceId>
2ESI_KAN_A_51

>  <ChemCompId>
KAN

>  <PdbId>
2ESI

>  <ChainId>
A

>  <ResidueNumber>
51

>  <InsertionCode>


>  <Model>
1

>  <AltIds>


>  <MissingHeavyAtoms>
0

>  <ObservedFormula>
C18 N4 O11

>  <Name>
KANAMYCIN A

>  <SystematicName>
(2R,3S,4S,5R,6R)-2-(aminomethyl)-6-[(1R,2R,3S,4R,6S)-4,6-diamino-3-[(2S,3R,4S,5S,6R)-4-amino-3,5-dihydroxy-6-(hydroxymethyl)oxan-2-yl]oxy-2-hydroxy-cyclohexyl]oxy-oxane-3,4,5-triol

>  <Synonyms>


>  <Type>
NON-POLYMER

>  <Formula>
C18 H36 N4 O11

>  <MolecularWeight>
484.499

>  <ModifiedDate>
2011-06-04

>  <Parent>


>  <OneLetterCode>


>  <SubcomponentList>


>  <AmbiguousFlag>
N

>  <InChI>
InChI=1S/C18H36N4O11/c19-2-6-10(25)12(27)13(28)18(30-6)33-16-5(21)1-4(20)15(14(16)29)32-17-11(26)8(22)9(24)7(3-23)31-17/h4-18,23-29H,1-3,19-22H2/t4-,5+,6-,7-,8+,9-,10-,11-,12+,13-,14-,15+,16-,17-,18-/m1/s1

>  <InChIKey>
SBUJHOSQTJFQJX-NOAMYHISSA-N

>  <SMILES>
C1[C@H]([C@@H]([C@H]([C@@H]([C@H]1N)O[C@@H]2[C@@H]([C@H]([C@@H]([C@H](O2)CN)O)O)O)O)O[C@@H]3[C@@H]([C@H]([C@@H]([C@H](O3)CO)O)N)O)N

$$$$
