@<TRIPOS>MOLECULE
2M4Q_AM2_1_101
 78 81 0 0 0
SMALL
GASTEIGER

@<TRIPOS>ATOM
      1 C           1.2683    4.0781   -2.3836 C.3     1  UNL1        0.1752
      2 H           0.9006    4.9500   -2.9302 H       1  UNL1        0.0926
      3 C           0.5173    2.8288   -2.9553 C.3     1  UNL1        0.0590
      4 H           0.7953    2.7546   -4.0129 H       1  UNL1        0.0509
      5 C           1.0340    1.5683   -2.2453 C.3     1  UNL1       -0.0040
      6 C           2.5226    1.4641   -2.5403 C.3     1  UNL1        0.0920
      7 H           2.5971    1.2405   -3.6142 H       1  UNL1        0.0624
      8 C           3.2664    2.7582   -2.1821 C.3     1  UNL1        0.1153
      9 H           3.3811    2.8487   -1.0946 H       1  UNL1        0.0649
     10 C           4.6539    2.6336   -2.8277 C.3     1  UNL1        0.1038
     11 H           5.2664    3.5089   -2.5816 H       1  UNL1        0.0637
     12 C           5.3694    1.3347   -2.3565 C.3     1  UNL1        0.0877
     13 H           5.5918    1.5162   -1.2946 H       1  UNL1        0.0537
     14 C           4.4211    0.0734   -2.3361 C.3     1  UNL1        0.1803
     15 H           4.3058   -0.3367   -3.3466 H       1  UNL1        0.0928
     16 O           3.1243    0.4023   -1.8074 O.3     1  UNL1       -0.3436
     17 O           5.0423   -0.9249   -1.4992 O.3     1  UNL1       -0.3184
     18 C           4.1959   -2.0614   -1.2872 C.3     1  UNL1        0.1908
     19 H           3.2242   -1.7235   -0.9151 H       1  UNL1        0.0938
     20 C           4.8369   -2.9659   -0.1994 C.3     1  UNL1        0.1332
     21 H           4.8865   -2.4109    0.7448 H       1  UNL1        0.0671
     22 C           4.0081   -4.2504   -0.0216 C.3     1  UNL1        0.1033
     23 H           4.5422   -4.9515    0.6322 H       1  UNL1        0.0637
     24 C           3.7314   -4.9450   -1.3834 C.3     1  UNL1        0.0626
     25 H           2.9956   -5.7441   -1.2357 H       1  UNL1        0.0511
     26 C           3.1628   -3.9215   -2.4012 C.3     1  UNL1        0.1023
     27 H           3.1708   -4.3738   -3.4012 H       1  UNL1        0.0636
     28 C           1.6956   -3.5230   -2.1212 C.3     1  UNL1        0.0720
     29 O           1.2165   -2.5993   -3.1010 O.3     1  UNL1       -0.3924
     30 O           4.0548   -2.7902   -2.5074 O.3     1  UNL1       -0.3415
     31 N           4.9438   -5.5801   -1.9541 N.3     1  UNL1       -0.3230
     32 O           2.7576   -3.9731    0.6193 O.3     1  UNL1       -0.3874
     33 O           6.1880   -3.3317   -0.5289 O.3     1  UNL1       -0.3841
     34 N           6.7168    1.0995   -2.9512 N.3     1  UNL1       -0.3099
     35 C           6.7664    1.1147   -4.4090 C.3     1  UNL1       -0.0153
     36 O           4.4442    2.6723   -4.2539 O.3     1  UNL1       -0.3874
     37 O           2.6601    3.9560   -2.6862 O.3     1  UNL1       -0.3413
     38 N          -0.9516    2.9004   -2.9186 N.3     1  UNL1       -0.3231
     39 O           1.0032    4.2699   -0.9821 O.3     1  UNL1       -0.3423
     40 C           1.7009    5.3758   -0.3657 C.3     1  UNL1        0.1051
     41 H           2.7728    5.2727   -0.5738 H       1  UNL1        0.0639
     42 C           1.2243    6.7627   -0.8495 C.3     1  UNL1        0.1101
     43 H           1.2975    6.8070   -1.9432 H       1  UNL1        0.0646
     44 C          -0.2383    7.0434   -0.4621 C.3     1  UNL1        0.0986
     45 H          -0.4745    8.0763   -0.7460 H       1  UNL1        0.0635
     46 C          -0.5277    6.8854    1.0545 C.3     1  UNL1        0.0351
     47 H          -1.6131    6.7710    1.1704 H       1  UNL1        0.0485
     48 C           0.1048    5.6165    1.6546 C.3     1  UNL1       -0.0175
     49 C           1.5333    5.2795    1.1777 C.3     1  UNL1        0.0355
     50 H           1.7171    4.2265    1.4679 H       1  UNL1        0.0485
     51 N           2.5401    6.0859    1.9023 N.3     1  UNL1       -0.3250
     52 N          -0.1909    8.0844    1.8495 N.3     1  UNL1       -0.3250
     53 O          -1.1619    6.2408   -1.2083 O.3     1  UNL1       -0.3876
     54 O           2.0708    7.8125   -0.3579 O.3     1  UNL1       -0.3866
     55 H           0.5288    0.6652   -2.6164 H       1  UNL1        0.0308
     56 H           0.8502    1.5959   -1.1649 H       1  UNL1        0.0308
     57 H           1.0520   -4.4095   -2.1409 H       1  UNL1        0.0583
     58 H           1.5554   -3.0371   -1.1547 H       1  UNL1        0.0583
     59 H           1.3190   -3.0167   -3.9755 H       1  UNL1        0.2095
     60 H           5.6347   -5.7346   -1.2156 H       1  UNL1        0.1186
     61 H           5.3951   -4.9281   -2.5994 H       1  UNL1        0.1186
     62 H           2.9256   -3.4212    1.4036 H       1  UNL1        0.2100
     63 H           6.3053   -3.1098   -1.4717 H       1  UNL1        0.2101
     64 H           7.0391    0.1878   -2.6227 H       1  UNL1        0.1221
     65 H           6.6356    2.1216   -4.8166 H       1  UNL1        0.0388
     66 H           6.0431    0.4310   -4.8637 H       1  UNL1        0.0388
     67 H           7.7640    0.8012   -4.7350 H       1  UNL1        0.0388
     68 H           4.0339    3.5431   -4.4259 H       1  UNL1        0.2100
     69 H          -1.2955    2.5285   -2.0304 H       1  UNL1        0.1186
     70 H          -1.3163    2.2516   -3.6217 H       1  UNL1        0.1186
     71 H          -0.5443    4.7656    1.4058 H       1  UNL1        0.0297
     72 H           0.0808    5.6731    2.7546 H       1  UNL1        0.0297
     73 H           2.9021    5.5163    2.6756 H       1  UNL1        0.1185
     74 H           2.0792    6.8444    2.4142 H       1  UNL1        0.1185
     75 H          -0.4533    8.9160    1.3128 H       1  UNL1        0.1185
     76 H           0.8077    8.1843    1.9887 H       1  UNL1        0.1185
     77 H          -0.7496    5.3883   -1.4372 H       1  UNL1        0.2100
     78 H           2.5532    7.4574    0.4206 H       1  UNL1        0.2100
@<TRIPOS>BOND
     1     1     2    1
     2     1     3    1
     3     1    37    1
     4     1    39    1
     5     3     5    1
     6     3    38    1
     7     3     4    1
     8     5     6    1
     9     5    55    1
    10     5    56    1
    11     6     7    1
    12     6     8    1
    13     6    16    1
    14     8     9    1
    15     8    10    1
    16     8    37    1
    17    10    11    1
    18    10    12    1
    19    10    36    1
    20    12    13    1
    21    12    14    1
    22    12    34    1
    23    14    16    1
    24    14    17    1
    25    14    15    1
    26    18    20    1
    27    18    30    1
    28    18    19    1
    29    18    17    1
    30    20    22    1
    31    20    33    1
    32    20    21    1
    33    22    24    1
    34    22    32    1
    35    22    23    1
    36    24    25    1
    37    24    26    1
    38    24    31    1
    39    26    30    1
    40    26    28    1
    41    26    27    1
    42    28    29    1
    43    28    57    1
    44    28    58    1
    45    29    59    1
    46    31    60    1
    47    31    61    1
    48    32    62    1
    49    33    63    1
    50    34    35    1
    51    34    64    1
    52    35    65    1
    53    35    66    1
    54    35    67    1
    55    36    68    1
    56    38    69    1
    57    38    70    1
    58    39    40    1
    59    40    41    1
    60    40    42    1
    61    42    44    1
    62    42    54    1
    63    42    43    1
    64    44    46    1
    65    44    53    1
    66    44    45    1
    67    46    47    1
    68    46    48    1
    69    46    52    1
    70    48    49    1
    71    48    71    1
    72    48    72    1
    73    49    50    1
    74    49    40    1
    75    49    51    1
    76    51    73    1
    77    51    74    1
    78    52    75    1
    79    52    76    1
    80    53    77    1
    81    54    78    1
