REMARK  16 active torsions:
REMARK  status: ('A' for Active; 'I' for Inactive)
REMARK    1  A    between atoms: C_1  and  O_27 
REMARK    2  A    between atoms: C_2  and  N_26 
REMARK    3  A    between atoms: C_6  and  O_24 
REMARK    4  A    between atoms: C_7  and  N_22 
REMARK    5  A    between atoms: C_8  and  O_10 
REMARK    6  A    between atoms: C_11  and  O_10 
REMARK    7  A    between atoms: C_12  and  O_21 
REMARK    8  A    between atoms: C_13  and  O_20 
REMARK    9  A    between atoms: C_14  and  N_19 
REMARK   10  A    between atoms: C_15  and  C_16 
REMARK   11  A    between atoms: C_16  and  O_17 
REMARK   12  A    between atoms: O_27  and  C_28 
REMARK   13  A    between atoms: C_29  and  O_37 
REMARK   14  A    between atoms: C_30  and  O_36 
REMARK   15  A    between atoms: C_31  and  N_35 
REMARK   16  A    between atoms: C_33  and  N_34 
ROOT
ATOM      1  C   UNL d   1       1.268   4.078  -2.384  0.00  0.00     0.293 C 
ATOM      2  C   UNL d   1       0.517   2.829  -2.955  0.00  0.00     0.275 C 
ATOM      3  C   UNL d   1       1.034   1.568  -2.245  0.00  0.00     0.075 C 
ATOM      4  C   UNL d   1       2.523   1.464  -2.540  0.00  0.00     0.158 C 
ATOM      5  C   UNL d   1       3.266   2.758  -2.182  0.00  0.00     0.184 C 
ATOM      6  C   UNL d   1       4.654   2.634  -2.828  0.00  0.00     0.187 C 
ATOM      7  C   UNL d   1       5.369   1.335  -2.357  0.00  0.00     0.305 C 
ATOM      8  C   UNL d   1       4.421   0.073  -2.336  0.00  0.00     0.299 C 
ATOM      9  O   UNL d   1       3.124   0.402  -1.807  0.00  0.00    -0.351 OA
ATOM     10  O   UNL d   1       2.660   3.956  -2.686  0.00  0.00    -0.349 OA
ENDROOT
BRANCH   1  11
ATOM     11  O   UNL d   1       1.003   4.270  -0.982  0.00  0.00    -0.349 OA
BRANCH  11  12
ATOM     12  C   UNL d   1       1.701   5.376  -0.366  0.00  0.00     0.189 C 
ATOM     13  C   UNL d   1       1.224   6.763  -0.850  0.00  0.00     0.180 C 
ATOM     14  C   UNL d   1      -0.238   7.043  -0.462  0.00  0.00     0.182 C 
ATOM     15  C   UNL d   1      -0.528   6.885   1.054  0.00  0.00     0.251 C 
ATOM     16  C   UNL d   1       0.105   5.617   1.655  0.00  0.00     0.076 C 
ATOM     17  C   UNL d   1       1.533   5.279   1.178  0.00  0.00     0.251 C 
BRANCH  13  18
ATOM     18  O   UNL d   1       2.071   7.812  -0.358  0.00  0.00    -0.390 OA
ATOM     19  H   UNL d   1       2.553   7.457   0.421  0.00  0.00     0.210 HD
ENDBRANCH  13  18
BRANCH  14  20
ATOM     20  O   UNL d   1      -1.162   6.241  -1.208  0.00  0.00    -0.391 OA
ATOM     21  H   UNL d   1      -0.750   5.388  -1.437  0.00  0.00     0.210 HD
ENDBRANCH  14  20
BRANCH  15  22
ATOM     22  N   UNL d   1      -0.191   8.084   1.849  0.00  0.00     0.085 N 
ATOM     23  H   UNL d   1      -0.453   8.916   1.313  0.00  0.00     0.313 HD
ATOM     24  H   UNL d   1       0.808   8.184   1.989  0.00  0.00     0.313 HD
ENDBRANCH  15  22
BRANCH  17  25
ATOM     25  N   UNL d   1       2.540   6.086   1.902  0.00  0.00     0.085 N 
ATOM     26  H   UNL d   1       2.902   5.516   2.676  0.00  0.00     0.313 HD
ATOM     27  H   UNL d   1       2.079   6.844   2.414  0.00  0.00     0.313 HD
ENDBRANCH  17  25
ENDBRANCH  11  12
ENDBRANCH   1  11
BRANCH   2  28
ATOM     28  N   UNL d   1      -0.952   2.900  -2.919  0.00  0.00     0.087 N 
ATOM     29  H   UNL d   1      -1.296   2.529  -2.030  0.00  0.00     0.313 HD
ATOM     30  H   UNL d   1      -1.316   2.252  -3.622  0.00  0.00     0.313 HD
ENDBRANCH   2  28
BRANCH   6  31
ATOM     31  O   UNL d   1       4.444   2.672  -4.254  0.00  0.00    -0.391 OA
ATOM     32  H   UNL d   1       4.034   3.543  -4.426  0.00  0.00     0.210 HD
ENDBRANCH   6  31
BRANCH   7  33
ATOM     33  N   UNL d   1       6.717   1.099  -2.951  0.00  0.00     0.091 N 
ATOM     34  C   UNL d   1       6.766   1.115  -4.409  0.00  0.00     0.307 C 
ATOM     35  H   UNL d   1       7.039   0.188  -2.623  0.00  0.00     0.316 HD
ENDBRANCH   7  33
BRANCH   8  36
ATOM     36  O   UNL d   1       5.042  -0.925  -1.499  0.00  0.00    -0.327 OA
BRANCH  36  37
ATOM     37  C   UNL d   1       4.196  -2.061  -1.287  0.00  0.00     0.294 C 
ATOM     38  C   UNL d   1       4.837  -2.966  -0.199  0.00  0.00     0.204 C 
ATOM     39  C   UNL d   1       4.008  -4.250  -0.022  0.00  0.00     0.187 C 
ATOM     40  C   UNL d   1       3.731  -4.945  -1.383  0.00  0.00     0.279 C 
ATOM     41  C   UNL d   1       3.163  -3.921  -2.401  0.00  0.00     0.183 C 
ATOM     42  O   UNL d   1       4.055  -2.790  -2.507  0.00  0.00    -0.349 OA
BRANCH  38  43
ATOM     43  O   UNL d   1       6.188  -3.332  -0.529  0.00  0.00    -0.388 OA
ATOM     44  H   UNL d   1       6.305  -3.110  -1.472  0.00  0.00     0.210 HD
ENDBRANCH  38  43
BRANCH  39  45
ATOM     45  O   UNL d   1       2.758  -3.973   0.619  0.00  0.00    -0.391 OA
ATOM     46  H   UNL d   1       2.926  -3.421   1.404  0.00  0.00     0.210 HD
ENDBRANCH  39  45
BRANCH  40  47
ATOM     47  N   UNL d   1       4.944  -5.580  -1.954  0.00  0.00     0.088 N 
ATOM     48  H   UNL d   1       5.635  -5.735  -1.216  0.00  0.00     0.313 HD
ATOM     49  H   UNL d   1       5.395  -4.928  -2.599  0.00  0.00     0.313 HD
ENDBRANCH  40  47
BRANCH  41  50
ATOM     50  C   UNL d   1       1.696  -3.523  -2.121  0.00  0.00     0.198 C 
BRANCH  50  51
ATOM     51  O   UNL d   1       1.216  -2.599  -3.101  0.00  0.00    -0.398 OA
ATOM     52  H   UNL d   1       1.319  -3.017  -3.975  0.00  0.00     0.209 HD
ENDBRANCH  50  51
ENDBRANCH  41  50
ENDBRANCH  36  37
ENDBRANCH   8  36
TORSDOF 16
