REMARK  2 active torsions:
REMARK  status: ('A' for Active; 'I' for Inactive)
REMARK    1  A    between atoms: C_5  and  N_9 
REMARK    2  A    between atoms: C_7  and  N_8 
ROOT
ATOM      1  N   UNL d   1      -0.683   1.147   0.104  0.00  0.00    -0.203 NA
ATOM      2  C   UNL d   1       0.644   1.092  -0.004  0.00  0.00     0.129 A 
ATOM      3  C   UNL d   1       1.402   2.382   0.010  0.00  0.00     0.093 C 
ATOM      4  N   UNL d   1       1.351  -0.033  -0.110  0.00  0.00    -0.203 NA
ATOM      5  C   UNL d   1       0.630  -1.143  -0.125  0.00  0.00     0.203 A 
ATOM      6  N   UNL d   1      -0.686  -1.201  -0.009  0.00  0.00    -0.188 NA
ATOM      7  C   UNL d   1      -1.290  -0.030   0.112  0.00  0.00     0.203 A 
ENDROOT
BRANCH   5   8
ATOM      8  N   UNL d   1       1.314  -2.340  -0.231  0.00  0.00    -0.270 NA
ATOM      9  H   UNL d   1       2.259  -2.227   0.107  0.00  0.00     0.127 HD
ATOM     10  H   UNL d   1       0.765  -3.086   0.173  0.00  0.00     0.127 HD
ENDBRANCH   5   8
BRANCH   7  11
ATOM     11  N   UNL d   1      -2.667  -0.031   0.219  0.00  0.00    -0.270 NA
ATOM     12  H   UNL d   1      -3.044  -0.876  -0.189  0.00  0.00     0.127 HD
ATOM     13  H   UNL d   1      -3.040   0.848  -0.113  0.00  0.00     0.127 HD
ENDBRANCH   7  11
TORSDOF 2
