@<TRIPOS>MOLECULE
2XNZ_3AW_A_1088
 16 16 0 0 0
SMALL
GASTEIGER

@<TRIPOS>ATOM
      1 N          -0.6827    1.1465    0.1041 N.ar    1  UNL1       -0.1999
      2 C           0.6441    1.0918   -0.0039 C.ar    1  UNL1        0.1331
      3 C           1.4020    2.3821    0.0097 C.3     1  UNL1       -0.0044
      4 N           1.3508   -0.0328   -0.1102 N.ar    1  UNL1       -0.1999
      5 C           0.6305   -1.1434   -0.1248 C.ar    1  UNL1        0.2171
      6 N          -0.6865   -1.2014   -0.0091 N.ar    1  UNL1       -0.1815
      7 C          -1.2898   -0.0299    0.1116 C.ar    1  UNL1        0.2171
      8 N          -2.6671   -0.0311    0.2193 N.pl3   1  UNL1       -0.3274
      9 N           1.3138   -2.3395   -0.2314 N.pl3   1  UNL1       -0.3274
     10 H           0.7211    3.2389    0.0151 H       1  UNL1        0.0308
     11 H           2.0381    2.4522   -0.8777 H       1  UNL1        0.0308
     12 H           2.0319    2.4331    0.9028 H       1  UNL1        0.0308
     13 H          -3.0437   -0.8756   -0.1887 H       1  UNL1        0.1452
     14 H          -3.0396    0.8477   -0.1125 H       1  UNL1        0.1452
     15 H           2.2593   -2.2266    0.1066 H       1  UNL1        0.1452
     16 H           0.7654   -3.0858    0.1733 H       1  UNL1        0.1452
@<TRIPOS>BOND
     1     1     2   ar
     2     1     7   ar
     3     2     3    1
     4     2     4   ar
     5     3    10    1
     6     3    11    1
     7     3    12    1
     8     4     5   ar
     9     5     6   ar
    10     5     9    1
    11     6     7   ar
    12     7     8    1
    13     8    13    1
    14     8    14    1
    15     9    15    1
    16     9    16    1
