2G9C_3AY_A_91
 OpenBabel03221817233D

 16 16  0  0  0  0  0  0  0  0999 V2000
    1.1536   -0.1055   -0.1245 N   0  0  0  0  0  0  0  0  0  0  0  0
    2.5444   -0.0313   -0.0333 C   0  0  0  0  0  0  0  0  0  0  0  0
    3.1691    1.1864    0.0809 C   0  0  0  0  0  0  0  0  0  0  0  0
    4.5417    1.1624    0.1285 C   0  0  0  0  0  0  0  0  0  0  0  0
    5.2465    0.0294    0.0752 N   0  0  0  0  0  0  0  0  0  0  0  0
    4.5494   -1.1006   -0.0678 C   0  0  0  0  0  0  0  0  0  0  0  0
    3.2171   -1.1831   -0.1112 N   0  0  0  0  0  0  0  0  0  0  0  0
    5.2644   -2.2807   -0.1313 N   0  0  0  0  0  0  0  0  0  0  0  0
    5.2645    2.3464    0.2859 N   0  0  0  0  0  0  0  0  0  0  0  0
    0.6928    0.3892    0.6306 H   0  0  0  0  0  0  0  0  0  0  0  0
    0.8989   -1.0901   -0.1487 H   0  0  0  0  0  0  0  0  0  0  0  0
    2.6124    2.1115    0.1313 H   0  0  0  0  0  0  0  0  0  0  0  0
    6.1655   -2.1556    0.3072 H   0  0  0  0  0  0  0  0  0  0  0  0
    4.6899   -3.0452    0.1930 H   0  0  0  0  0  0  0  0  0  0  0  0
    5.0157    3.0337   -0.4169 H   0  0  0  0  0  0  0  0  0  0  0  0
    6.2520    2.1054    0.2419 H   0  0  0  0  0  0  0  0  0  0  0  0
  1  2  1  0  0  0  0
  1 10  1  0  0  0  0
  1 11  1  0  0  0  0
  2  3  2  0  0  0  0
  2  7  1  0  0  0  0
  3  4  1  0  0  0  0
  3 12  1  0  0  0  0
  4  5  2  0  0  0  0
  4  9  1  0  0  0  0
  5  6  1  0  0  0  0
  6  7  2  0  0  0  0
  6  8  1  0  0  0  0
  8 13  1  0  0  0  0
  8 14  1  0  0  0  0
  9 15  1  0  0  0  0
  9 16  1  0  0  0  0
M  END
$$$$
