@<TRIPOS>MOLECULE
2G9C_3AY_A_91
 16 16 0 0 0
SMALL
GASTEIGER

@<TRIPOS>ATOM
      1 N           1.1536   -0.1055   -0.1245 N.pl3   1  UNL1       -0.3430
      2 C           2.5444   -0.0313   -0.0333 C.ar    1  UNL1        0.1230
      3 C           3.1691    1.1864    0.0809 C.ar    1  UNL1        0.0176
      4 C           4.5417    1.1624    0.1285 C.ar    1  UNL1        0.1230
      5 N           5.2465    0.0294    0.0752 N.ar    1  UNL1       -0.2000
      6 C           4.5494   -1.1006   -0.0678 C.ar    1  UNL1        0.2159
      7 N           3.2171   -1.1831   -0.1112 N.ar    1  UNL1       -0.2000
      8 N           5.2644   -2.2807   -0.1313 N.pl3   1  UNL1       -0.3274
      9 N           5.2645    2.3464    0.2859 N.pl3   1  UNL1       -0.3430
     10 H           0.6928    0.3892    0.6306 H       1  UNL1        0.1437
     11 H           0.8989   -1.0901   -0.1487 H       1  UNL1        0.1437
     12 H           2.6124    2.1115    0.1313 H       1  UNL1        0.0686
     13 H           6.1655   -2.1556    0.3072 H       1  UNL1        0.1452
     14 H           4.6899   -3.0452    0.1930 H       1  UNL1        0.1452
     15 H           5.0157    3.0337   -0.4169 H       1  UNL1        0.1437
     16 H           6.2520    2.1054    0.2419 H       1  UNL1        0.1437
@<TRIPOS>BOND
     1     1     2    1
     2     1    10    1
     3     1    11    1
     4     2     3   ar
     5     2     7   ar
     6     3     4   ar
     7     3    12    1
     8     4     5   ar
     9     4     9    1
    10     5     6   ar
    11     6     7   ar
    12     6     8    1
    13     8    13    1
    14     8    14    1
    15     9    15    1
    16     9    16    1
