REMARK  3 active torsions:
REMARK  status: ('A' for Active; 'I' for Inactive)
REMARK    1  A    between atoms: N_1  and  C_2 
REMARK    2  A    between atoms: C_4  and  N_9 
REMARK    3  A    between atoms: C_6  and  N_8 
ROOT
ATOM      1  C   UNL d   1       2.544  -0.031  -0.033  0.00  0.00     0.107 A 
ATOM      2  C   UNL d   1       3.169   1.186   0.081  0.00  0.00     0.088 A 
ATOM      3  C   UNL d   1       4.542   1.162   0.129  0.00  0.00     0.107 A 
ATOM      4  N   UNL d   1       5.247   0.029   0.075  0.00  0.00    -0.207 NA
ATOM      5  C   UNL d   1       4.549  -1.101  -0.068  0.00  0.00     0.202 A 
ATOM      6  N   UNL d   1       3.217  -1.183  -0.111  0.00  0.00    -0.207 NA
ENDROOT
BRANCH   1   7
ATOM      7  N   UNL d   1       1.154  -0.105  -0.124  0.00  0.00    -0.287 NA
ATOM      8  H   UNL d   1       0.693   0.389   0.631  0.00  0.00     0.125 HD
ATOM      9  H   UNL d   1       0.899  -1.090  -0.149  0.00  0.00     0.125 HD
ENDBRANCH   1   7
BRANCH   3  10
ATOM     10  N   UNL d   1       5.264   2.346   0.286  0.00  0.00    -0.287 NA
ATOM     11  H   UNL d   1       5.016   3.034  -0.417  0.00  0.00     0.125 HD
ATOM     12  H   UNL d   1       6.252   2.105   0.242  0.00  0.00     0.125 HD
ENDBRANCH   3  10
BRANCH   5  13
ATOM     13  N   UNL d   1       5.264  -2.281  -0.131  0.00  0.00    -0.271 NA
ATOM     14  H   UNL d   1       6.165  -2.156   0.307  0.00  0.00     0.127 HD
ATOM     15  H   UNL d   1       4.690  -3.045   0.193  0.00  0.00     0.127 HD
ENDBRANCH   5  13
TORSDOF 3
