REMARK  6 active torsions:
REMARK  status: ('A' for Active; 'I' for Inactive)
REMARK    1  A    between atoms: CA_5  and  N_1 
REMARK    2  A    between atoms: C_6  and  CA_5 
REMARK    3  A    between atoms: CB_8  and  CA_5 
REMARK    4  A    between atoms: CG_9  and  CB_8 
REMARK    5  A    between atoms: CD_10  and  CG_9 
REMARK    6  A    between atoms: NE_11  and  CD_10 
REMARK       I    between atoms: CZ_12  and  NE_11 
REMARK       I    between atoms: NH1_13  and  CZ_12 
REMARK       I    between atoms: NH2_16  and  CZ_12 
ROOT
ATOM      1  CD  ARG d   1      -3.303  -2.965   1.073  0.00  0.00     0.138 C 
ENDROOT
BRANCH   1   2
ATOM      2  CG  ARG d   1      -2.656  -1.591   1.232  0.00  0.00     0.023 C 
BRANCH   2   3
ATOM      3  CB  ARG d   1      -2.378  -0.996  -0.152  0.00  0.00     0.041 C 
BRANCH   3   4
ATOM      4  CA  ARG d   1      -1.954   0.474  -0.157  0.00  0.00     0.244 C 
BRANCH   4   5
ATOM      5  N   ARG d   1      -3.013   1.314   0.468  0.00  0.00    -0.069 N 
ATOM      6  H1  ARG d   1      -2.861   1.401   1.482  0.00  0.00     0.275 HD
ATOM      7  H2  ARG d   1      -3.954   0.921   0.332  0.00  0.00     0.275 HD
ATOM      8  H3  ARG d   1      -3.026   2.270   0.088  0.00  0.00     0.275 HD
ENDBRANCH   4   5
BRANCH   4   9
ATOM      9  C   ARG d   1      -1.713   0.955  -1.574  0.00  0.00     0.263 C 
ATOM     10  O   ARG d   1      -1.603   0.215  -2.548  0.00  0.00    -0.305 OA
ENDBRANCH   4   9
ENDBRANCH   3   4
ENDBRANCH   2   3
ENDBRANCH   1   2
BRANCH   1  11
ATOM     11  NE  ARG d   1      -3.694  -3.533   2.366  0.00  0.00    -0.227 N 
ATOM     12  CZ  ARG d   1      -2.750  -4.081   3.226  0.00  0.00     0.665 C 
ATOM     13  NH1 ARG d   1      -2.624  -3.565   4.507  0.00  0.00    -0.235 N 
ATOM     14  NH2 ARG d   1      -1.953  -5.144   2.824  0.00  0.00    -0.235 N 
ATOM     15 1HH1 ARG d   1      -1.962  -3.953   5.173  0.00  0.00     0.174 HD
ATOM     16 2HH1 ARG d   1      -3.202  -2.785   4.810  0.00  0.00     0.174 HD
ATOM     17 1HH2 ARG d   1      -0.983  -5.213   3.117  0.00  0.00     0.174 HD
ATOM     18 2HH2 ARG d   1      -2.318  -5.883   2.225  0.00  0.00     0.174 HD
ATOM     19  HE  ARG d   1      -4.645  -3.414   2.707  0.00  0.00     0.177 HD
ENDBRANCH   1  11
TORSDOF 6
