@<TRIPOS>MOLECULE
ligand.pdb
 27 26 0 0 0
SMALL
GASTEIGER

@<TRIPOS>ATOM
      1 N          -3.0126    1.3139    0.4680 N.4     1  ARG1        0.2259
      2 H1         -2.8607    1.4007    1.4816 H       1  ARG1        0.2001
      3 H2         -3.9536    0.9209    0.3322 H       1  ARG1        0.2001
      4 H3         -3.0264    2.2696    0.0881 H       1  ARG1        0.2001
      5 CA         -1.9535    0.4737   -0.1573 C.3     1  ARG1        0.0321
      6 HA         -1.0380    0.6331    0.4213 H       1  ARG1        0.0929
      7 C          -1.7131    0.9552   -1.5739 C.2     1  ARG1        0.1675
      8 O          -1.6027    0.2155   -2.5484 O.2     1  ARG1       -0.2951
      9 CB         -2.3785   -0.9963   -0.1524 C.3     1  ARG1       -0.0001
     10 CG         -2.6559   -1.5906    1.2322 C.3     1  ARG1       -0.0167
     11 CD         -3.3032   -2.9650    1.0726 C.3     1  ARG1        0.0647
     12 NE         -3.6939   -3.5325    2.3661 N.pl3   1  ARG1       -0.2787
     13 CZ         -2.7496   -4.0811    3.2258 C.cat   1  ARG1        0.3410
     14 NH1        -2.6242   -3.5651    4.5066 N.pl3   1  ARG1       -0.2919
     15 HH11       -1.9617   -3.9526    5.1731 H       1  ARG1        0.2545
     16 HH12       -3.2020   -2.7849    4.8101 H       1  ARG1        0.2545
     17 NH2        -1.9529   -5.1442    2.8241 N.pl3   1  ARG1       -0.2919
     18 H          -1.6186    2.0467   -1.7003 H       1  ARG1        0.1086
     19 HB1        -1.5746   -1.5911   -0.6078 H       1  ARG1        0.0325
     20 HB2        -3.2643   -1.1214   -0.7887 H       1  ARG1        0.0325
     21 HG1        -3.3202   -0.9436    1.8156 H       1  ARG1        0.0298
     22 HG2        -1.7158   -1.6866    1.7884 H       1  ARG1        0.0298
     23 HD1        -4.2158   -2.8876    0.4707 H       1  ARG1        0.0655
     24 HD2        -2.6274   -3.6639    0.5680 H       1  ARG1        0.0655
     25 HE         -4.6448   -3.4141    2.7073 H       1  ARG1        0.2578
     26 HH21       -0.9831   -5.2129    3.1173 H       1  ARG1        0.2545
     27 HH22       -2.3182   -5.8830    2.2254 H       1  ARG1        0.2545
@<TRIPOS>BOND
     1     1     2    1
     2     1     3    1
     3     1     4    1
     4     5     1    1
     5     5     6    1
     6     7     5    1
     7     8     7    2
     8     9     5    1
     9    10     9    1
    10    11    10    1
    11    12    11    1
    12    13    12    1
    13    14    13    2
    14    14    15    1
    15    14    16    1
    16    17    13    1
    17     7    18    1
    18     9    19    1
    19     9    20    1
    20    10    21    1
    21    10    22    1
    22    11    23    1
    23    11    24    1
    24    12    25    1
    25    17    26    1
    26    17    27    1
