REMARK  13 active torsions:
REMARK  status: ('A' for Active; 'I' for Inactive)
REMARK    1  A    between atoms: C_1  and  C_18 
REMARK    2  A    between atoms: C_4  and  C_7 
REMARK    3  A    between atoms: C_7  and  N_8 
REMARK    4  A    between atoms: C_7  and  N_17 
REMARK    5  A    between atoms: N_8  and  C_10 
REMARK    6  A    between atoms: C_10  and  C_11 
REMARK    7  A    between atoms: C_11  and  C_12 
REMARK    8  A    between atoms: C_12  and  N_13 
REMARK    9  A    between atoms: C_18  and  N_19 
REMARK   10  A    between atoms: N_19  and  C_21 
REMARK   11  A    between atoms: C_21  and  C_22 
REMARK   12  A    between atoms: C_22  and  C_23 
REMARK   13  A    between atoms: C_23  and  N_24 
ROOT
ATOM      1  C   UNL d   1      -1.446  -0.025  -0.053  0.00  0.00     0.007 A 
ATOM      2  C   UNL d   1      -0.734   1.185  -0.029  0.00  0.00     0.016 A 
ATOM      3  C   UNL d   1       0.675   1.215  -0.052  0.00  0.00     0.016 A 
ATOM      4  C   UNL d   1       1.434   0.034  -0.072  0.00  0.00     0.007 A 
ATOM      5  C   UNL d   1       0.722  -1.176  -0.028  0.00  0.00     0.016 A 
ATOM      6  C   UNL d   1      -0.686  -1.206  -0.034  0.00  0.00     0.016 A 
ENDROOT
BRANCH   1   7
ATOM      7  C   UNL d   1      -2.938  -0.058  -0.119  0.00  0.00     0.104 C 
ATOM      8  N   UNL d   1      -3.583  -1.042   0.477  0.00  0.00    -0.385 N 
ATOM      9  H   UNL d   1      -3.090  -1.746   1.019  0.00  0.00     0.157 HD
ATOM     10  H   UNL d   1      -4.586  -1.157   0.446  0.00  0.00     0.157 HD
BRANCH   7  11
ATOM     11  N   UNL d   1      -3.576   0.896  -0.797  0.00  0.00    -0.376 N 
ATOM     12  H   UNL d   1      -2.987   1.579  -1.264  0.00  0.00     0.161 HD
BRANCH  11  13
ATOM     13  C   UNL d   1      -5.043   1.000  -0.949  0.00  0.00     0.123 C 
BRANCH  13  14
ATOM     14  C   UNL d   1      -5.409   2.248  -1.764  0.00  0.00     0.047 C 
BRANCH  14  15
ATOM     15  C   UNL d   1      -6.928   2.345  -1.949  0.00  0.00     0.235 C 
BRANCH  15  16
ATOM     16  N   UNL d   1      -7.350   3.577  -2.718  0.00  0.00    -0.079 N 
ATOM     17  H   UNL d   1      -7.021   4.421  -2.227  0.00  0.00     0.278 HD
ATOM     18  C   UNL d   1      -6.826   3.660  -4.132  0.00  0.00     0.269 C 
ATOM     19  C   UNL d   1      -8.868   3.702  -2.732  0.00  0.00     0.269 C 
ENDBRANCH  15  16
ENDBRANCH  14  15
ENDBRANCH  13  14
ENDBRANCH  11  13
ENDBRANCH   7  11
ENDBRANCH   1   7
BRANCH   4  20
ATOM     20  C   UNL d   1       2.925   0.058  -0.192  0.00  0.00     0.104 C 
BRANCH  20  21
ATOM     21  N   UNL d   1       3.618   1.064   0.344  0.00  0.00    -0.376 N 
ATOM     22  H   UNL d   1       3.082   1.740   0.878  0.00  0.00     0.161 HD
BRANCH  21  23
ATOM     23  C   UNL d   1       5.084   1.232   0.228  0.00  0.00     0.123 C 
BRANCH  23  24
ATOM     24  C   UNL d   1       5.532   2.527   0.914  0.00  0.00     0.047 C 
BRANCH  24  25
ATOM     25  C   UNL d   1       7.054   2.687   0.822  0.00  0.00     0.235 C 
BRANCH  25  26
ATOM     26  N   UNL d   1       7.551   3.962   1.465  0.00  0.00    -0.079 N 
ATOM     27  H   UNL d   1       7.104   4.775   1.017  0.00  0.00     0.278 HD
ATOM     28  C   UNL d   1       7.280   4.074   2.947  0.00  0.00     0.269 C 
ATOM     29  C   UNL d   1       9.042   4.145   1.208  0.00  0.00     0.269 C 
ENDBRANCH  25  26
ENDBRANCH  24  25
ENDBRANCH  23  24
ENDBRANCH  21  23
ENDBRANCH  20  21
BRANCH  20  30
ATOM     30  N   UNL d   1       3.516  -0.921  -0.852  0.00  0.00    -0.385 N 
ATOM     31  H   UNL d   1       2.980  -1.663  -1.292  0.00  0.00     0.157 HD
ATOM     32  H   UNL d   1       4.517  -1.000  -0.966  0.00  0.00     0.157 HD
ENDBRANCH  20  30
ENDBRANCH   4  20
TORSDOF 13
