@<TRIPOS>MOLECULE
2L94_L94_A_46
 60 60 0 0 0
SMALL
GASTEIGER

@<TRIPOS>ATOM
      1 C          -1.4457   -0.0255   -0.0532 C.ar    1  UNL1        0.0610
      2 C          -0.7339    1.1855   -0.0285 C.ar    1  UNL1       -0.0462
      3 C           0.6748    1.2154   -0.0525 C.ar    1  UNL1       -0.0462
      4 C           1.4343    0.0343   -0.0718 C.ar    1  UNL1        0.0610
      5 C           0.7220   -1.1764   -0.0278 C.ar    1  UNL1       -0.0462
      6 C          -0.6861   -1.2063   -0.0335 C.ar    1  UNL1       -0.0462
      7 C           2.9246    0.0580   -0.1918 C.2     1  UNL1        0.2682
      8 N           3.6177    1.0638    0.3439 N.2     1  UNL1       -0.2751
      9 H           3.0818    1.7404    0.8779 H       1  UNL1        0.3038
     10 C           5.0842    1.2316    0.2283 C.3     1  UNL1        0.0892
     11 C           5.5322    2.5267    0.9143 C.3     1  UNL1        0.0250
     12 C           7.0542    2.6872    0.8222 C.3     1  UNL1       -0.0288
     13 N           7.5512    3.9620    1.4653 N.4     1  UNL1        0.2310
     14 H           7.1042    4.7748    1.0166 H       1  UNL1        0.2028
     15 C           7.2799    4.0740    2.9471 C.3     1  UNL1       -0.0433
     16 C           9.0416    4.1453    1.2079 C.3     1  UNL1       -0.0433
     17 N           3.5162   -0.9214   -0.8516 N.pl3   1  UNL1       -0.2496
     18 C          -2.9381   -0.0577   -0.1192 C.2     1  UNL1        0.2682
     19 N          -3.5764    0.8964   -0.7969 N.2     1  UNL1       -0.2751
     20 H          -2.9868    1.5790   -1.2639 H       1  UNL1        0.3038
     21 C          -5.0428    1.0005   -0.9492 C.3     1  UNL1        0.0892
     22 C          -5.4087    2.2481   -1.7638 C.3     1  UNL1        0.0250
     23 C          -6.9278    2.3447   -1.9487 C.3     1  UNL1       -0.0288
     24 N          -7.3499    3.5770   -2.7177 N.4     1  UNL1        0.2310
     25 H          -7.0213    4.4215   -2.2268 H       1  UNL1        0.2028
     26 C          -6.8261    3.6596   -4.1319 C.3     1  UNL1       -0.0433
     27 C          -8.8676    3.7019   -2.7317 C.3     1  UNL1       -0.0433
     28 N          -3.5826   -1.0425    0.4775 N.pl3   1  UNL1       -0.2496
     29 H          -1.2604    2.1389    0.0092 H       1  UNL1        0.0626
     30 H           1.1571    2.1915   -0.0870 H       1  UNL1        0.0626
     31 H           1.2454   -2.1330    0.0048 H       1  UNL1        0.0626
     32 H          -1.1688   -2.1843   -0.0489 H       1  UNL1        0.0626
     33 H           5.3454    1.2566   -0.8365 H       1  UNL1        0.0746
     34 H           5.5647    0.3661    0.6940 H       1  UNL1        0.0746
     35 H           5.2080    2.4953    1.9600 H       1  UNL1        0.0355
     36 H           5.0311    3.3854    0.4504 H       1  UNL1        0.0355
     37 H           7.3557    2.7321   -0.2311 H       1  UNL1        0.0815
     38 H           7.5719    1.8522    1.3067 H       1  UNL1        0.0815
     39 H           6.1990    4.1363    3.0907 H       1  UNL1        0.0777
     40 H           7.7443    4.9928    3.3134 H       1  UNL1        0.0777
     41 H           7.6964    3.1940    3.4430 H       1  UNL1        0.0777
     42 H           9.1956    4.1507    0.1266 H       1  UNL1        0.0777
     43 H           9.5733    3.3142    1.6796 H       1  UNL1        0.0777
     44 H           9.3439    5.1042    1.6347 H       1  UNL1        0.0777
     45 H           2.9798   -1.6627   -1.2915 H       1  UNL1        0.2883
     46 H           4.5168   -1.0000   -0.9660 H       1  UNL1        0.2883
     47 H          -5.4919    1.0505    0.0482 H       1  UNL1        0.0746
     48 H          -5.3980    0.0981   -1.4580 H       1  UNL1        0.0746
     49 H          -4.9023    2.1914   -2.7337 H       1  UNL1        0.0355
     50 H          -5.0293    3.1447   -1.2587 H       1  UNL1        0.0355
     51 H          -7.4131    2.4083   -0.9679 H       1  UNL1        0.0815
     52 H          -7.3182    1.4736   -2.4860 H       1  UNL1        0.0815
     53 H          -5.7393    3.7648   -4.0887 H       1  UNL1        0.0777
     54 H          -7.2559    4.5446   -4.6067 H       1  UNL1        0.0777
     55 H          -7.1172    2.7472   -4.6618 H       1  UNL1        0.0777
     56 H          -9.2104    3.7293   -1.6945 H       1  UNL1        0.0777
     57 H          -9.2768    2.8371   -3.2608 H       1  UNL1        0.0777
     58 H          -9.1265    4.6360   -3.2366 H       1  UNL1        0.0777
     59 H          -3.0897   -1.7457    1.0191 H       1  UNL1        0.2883
     60 H          -4.5861   -1.1567    0.4461 H       1  UNL1        0.2883
@<TRIPOS>BOND
     1     1     2   ar
     2     1     6   ar
     3     1    18    1
     4     2     3   ar
     5     2    29    1
     6     3     4   ar
     7     3    30    1
     8     4     5   ar
     9     4     7    1
    10     5     6   ar
    11     5    31    1
    12     6    32    1
    13     7     8    2
    14     7    17    1
    15     8     9    1
    16     8    10    1
    17    10    11    1
    18    10    33    1
    19    10    34    1
    20    11    12    1
    21    11    35    1
    22    11    36    1
    23    12    13    1
    24    12    37    1
    25    12    38    1
    26    13    14    1
    27    13    15    1
    28    13    16    1
    29    15    39    1
    30    15    40    1
    31    15    41    1
    32    16    42    1
    33    16    43    1
    34    16    44    1
    35    17    45    1
    36    17    46    1
    37    18    19    2
    38    18    28    1
    39    19    20    1
    40    19    21    1
    41    21    22    1
    42    21    47    1
    43    21    48    1
    44    22    23    1
    45    22    49    1
    46    22    50    1
    47    23    24    1
    48    23    51    1
    49    23    52    1
    50    24    25    1
    51    24    26    1
    52    24    27    1
    53    26    53    1
    54    26    54    1
    55    26    55    1
    56    27    56    1
    57    27    57    1
    58    27    58    1
    59    28    59    1
    60    28    60    1
