2L94_L94_A_46
 OpenBabel03221817253D

 60 60  0  0  0  0  0  0  0  0999 V2000
   -1.4457   -0.0255   -0.0532 C   0  0  0  0  0  0  0  0  0  0  0  0
   -0.7339    1.1855   -0.0285 C   0  0  0  0  0  0  0  0  0  0  0  0
    0.6748    1.2154   -0.0525 C   0  0  0  0  0  0  0  0  0  0  0  0
    1.4343    0.0343   -0.0718 C   0  0  0  0  0  0  0  0  0  0  0  0
    0.7220   -1.1764   -0.0278 C   0  0  0  0  0  0  0  0  0  0  0  0
   -0.6861   -1.2063   -0.0335 C   0  0  0  0  0  0  0  0  0  0  0  0
    2.9246    0.0580   -0.1918 C   0  0  0  0  0  0  0  0  0  0  0  0
    3.6177    1.0638    0.3439 N   0  3  0  0  0  0  0  0  0  0  0  0
    3.0818    1.7404    0.8779 H   0  0  0  0  0  0  0  0  0  0  0  0
    5.0842    1.2316    0.2283 C   0  0  0  0  0  0  0  0  0  0  0  0
    5.5322    2.5267    0.9143 C   0  0  0  0  0  0  0  0  0  0  0  0
    7.0542    2.6872    0.8222 C   0  0  0  0  0  0  0  0  0  0  0  0
    7.5512    3.9620    1.4653 N   0  3  0  0  0  0  0  0  0  0  0  0
    7.1042    4.7748    1.0166 H   0  0  0  0  0  0  0  0  0  0  0  0
    7.2799    4.0740    2.9471 C   0  0  0  0  0  0  0  0  0  0  0  0
    9.0416    4.1453    1.2079 C   0  0  0  0  0  0  0  0  0  0  0  0
    3.5162   -0.9214   -0.8516 N   0  0  0  0  0  0  0  0  0  0  0  0
   -2.9381   -0.0577   -0.1192 C   0  0  0  0  0  0  0  0  0  0  0  0
   -3.5764    0.8964   -0.7969 N   0  3  0  0  0  0  0  0  0  0  0  0
   -2.9868    1.5790   -1.2639 H   0  0  0  0  0  0  0  0  0  0  0  0
   -5.0428    1.0005   -0.9492 C   0  0  0  0  0  0  0  0  0  0  0  0
   -5.4087    2.2481   -1.7638 C   0  0  0  0  0  0  0  0  0  0  0  0
   -6.9278    2.3447   -1.9487 C   0  0  0  0  0  0  0  0  0  0  0  0
   -7.3499    3.5770   -2.7177 N   0  3  0  0  0  0  0  0  0  0  0  0
   -7.0213    4.4215   -2.2268 H   0  0  0  0  0  0  0  0  0  0  0  0
   -6.8261    3.6596   -4.1319 C   0  0  0  0  0  0  0  0  0  0  0  0
   -8.8676    3.7019   -2.7317 C   0  0  0  0  0  0  0  0  0  0  0  0
   -3.5826   -1.0425    0.4775 N   0  0  0  0  0  0  0  0  0  0  0  0
   -1.2604    2.1389    0.0092 H   0  0  0  0  0  0  0  0  0  0  0  0
    1.1571    2.1915   -0.0870 H   0  0  0  0  0  0  0  0  0  0  0  0
    1.2454   -2.1330    0.0048 H   0  0  0  0  0  0  0  0  0  0  0  0
   -1.1688   -2.1843   -0.0489 H   0  0  0  0  0  0  0  0  0  0  0  0
    5.3454    1.2566   -0.8365 H   0  0  0  0  0  0  0  0  0  0  0  0
    5.5647    0.3661    0.6940 H   0  0  0  0  0  0  0  0  0  0  0  0
    5.2080    2.4953    1.9600 H   0  0  0  0  0  0  0  0  0  0  0  0
    5.0311    3.3854    0.4504 H   0  0  0  0  0  0  0  0  0  0  0  0
    7.3557    2.7321   -0.2311 H   0  0  0  0  0  0  0  0  0  0  0  0
    7.5719    1.8522    1.3067 H   0  0  0  0  0  0  0  0  0  0  0  0
    6.1990    4.1363    3.0907 H   0  0  0  0  0  0  0  0  0  0  0  0
    7.7443    4.9928    3.3134 H   0  0  0  0  0  0  0  0  0  0  0  0
    7.6964    3.1940    3.4430 H   0  0  0  0  0  0  0  0  0  0  0  0
    9.1956    4.1507    0.1266 H   0  0  0  0  0  0  0  0  0  0  0  0
    9.5733    3.3142    1.6796 H   0  0  0  0  0  0  0  0  0  0  0  0
    9.3439    5.1042    1.6347 H   0  0  0  0  0  0  0  0  0  0  0  0
    2.9798   -1.6627   -1.2915 H   0  0  0  0  0  0  0  0  0  0  0  0
    4.5168   -1.0000   -0.9660 H   0  0  0  0  0  0  0  0  0  0  0  0
   -5.4919    1.0505    0.0482 H   0  0  0  0  0  0  0  0  0  0  0  0
   -5.3980    0.0981   -1.4580 H   0  0  0  0  0  0  0  0  0  0  0  0
   -4.9023    2.1914   -2.7337 H   0  0  0  0  0  0  0  0  0  0  0  0
   -5.0293    3.1447   -1.2587 H   0  0  0  0  0  0  0  0  0  0  0  0
   -7.4131    2.4083   -0.9679 H   0  0  0  0  0  0  0  0  0  0  0  0
   -7.3182    1.4736   -2.4860 H   0  0  0  0  0  0  0  0  0  0  0  0
   -5.7393    3.7648   -4.0887 H   0  0  0  0  0  0  0  0  0  0  0  0
   -7.2559    4.5446   -4.6067 H   0  0  0  0  0  0  0  0  0  0  0  0
   -7.1172    2.7472   -4.6618 H   0  0  0  0  0  0  0  0  0  0  0  0
   -9.2104    3.7293   -1.6945 H   0  0  0  0  0  0  0  0  0  0  0  0
   -9.2768    2.8371   -3.2608 H   0  0  0  0  0  0  0  0  0  0  0  0
   -9.1265    4.6360   -3.2366 H   0  0  0  0  0  0  0  0  0  0  0  0
   -3.0897   -1.7457    1.0191 H   0  0  0  0  0  0  0  0  0  0  0  0
   -4.5861   -1.1567    0.4461 H   0  0  0  0  0  0  0  0  0  0  0  0
  1  2  2  0  0  0  0
  1  6  1  0  0  0  0
  1 18  1  0  0  0  0
  2  3  1  0  0  0  0
  2 29  1  0  0  0  0
  3  4  2  0  0  0  0
  3 30  1  0  0  0  0
  4  5  1  0  0  0  0
  4  7  1  0  0  0  0
  5  6  2  0  0  0  0
  5 31  1  0  0  0  0
  6 32  1  0  0  0  0
  7  8  2  0  0  0  0
  7 17  1  0  0  0  0
  8  9  1  0  0  0  0
  8 10  1  0  0  0  0
 10 11  1  0  0  0  0
 10 33  1  0  0  0  0
 10 34  1  0  0  0  0
 11 12  1  0  0  0  0
 11 35  1  0  0  0  0
 11 36  1  0  0  0  0
 12 13  1  0  0  0  0
 12 37  1  0  0  0  0
 12 38  1  0  0  0  0
 13 14  1  0  0  0  0
 13 15  1  0  0  0  0
 13 16  1  0  0  0  0
 15 39  1  0  0  0  0
 15 40  1  0  0  0  0
 15 41  1  0  0  0  0
 16 42  1  0  0  0  0
 16 43  1  0  0  0  0
 16 44  1  0  0  0  0
 17 45  1  0  0  0  0
 17 46  1  0  0  0  0
 18 19  2  0  0  0  0
 18 28  1  0  0  0  0
 19 20  1  0  0  0  0
 19 21  1  0  0  0  0
 21 22  1  0  0  0  0
 21 47  1  0  0  0  0
 21 48  1  0  0  0  0
 22 23  1  0  0  0  0
 22 49  1  0  0  0  0
 22 50  1  0  0  0  0
 23 24  1  0  0  0  0
 23 51  1  0  0  0  0
 23 52  1  0  0  0  0
 24 25  1  0  0  0  0
 24 26  1  0  0  0  0
 24 27  1  0  0  0  0
 26 53  1  0  0  0  0
 26 54  1  0  0  0  0
 26 55  1  0  0  0  0
 27 56  1  0  0  0  0
 27 57  1  0  0  0  0
 27 58  1  0  0  0  0
 28 59  1  0  0  0  0
 28 60  1  0  0  0  0
M  CHG  4   8   1  13   1  19   1  24   1
M  END
$$$$
