@<TRIPOS>MOLECULE
4ZNP_AMZ_A_101
 22 23 0 0 0
SMALL
GASTEIGER
****
Coordinates from PDB:4ZNP:A:101 Model:1 without hydrogens
@<TRIPOS>ATOM
      1 O          57.3760  -18.3270    8.1790 O.2     1  UNL1       -0.2649
      2 C          56.8360  -17.2480    8.1110 C.2     1  UNL1        0.3048
      3 N          55.6720  -17.0830    7.5080 N.am    1  UNL1       -0.0823
      4 C          57.4930  -16.0580    8.6700 C.ar    1  UNL1        0.1724
      5 C          58.8420  -16.0330    9.2400 C.ar    1  UNL1        0.1766
      6 N          59.6670  -17.0960    9.3530 N.pl3   1  UNL1       -0.1071
      7 N          57.0570  -14.7940    8.7910 N.ar    1  UNL1       -0.2177
      8 C          58.0470  -14.0480    9.3550 C.ar    1  UNL1        0.1815
      9 N          59.1420  -14.7980    9.6260 N.ar    1  UNL1       -0.2702
     10 C          60.4040  -14.3060   10.2430 C.3     1  UNL1        0.2408
     11 C          61.1650  -13.4760    9.2320 C.3     1  UNL1        0.2337
     12 C          61.7390  -12.3490   10.0510 C.3     1  UNL1        0.2161
     13 O          63.0400  -12.7110   10.5310 O.3     1  UNL1       -0.2175
     14 O          62.1840  -14.2550    8.5860 O.3     1  UNL1       -0.2155
     15 O          60.1140  -13.4320   11.3310 O.3     1  UNL1       -0.3306
     16 C          60.8120  -12.2140   11.2310 C.3     1  UNL1        0.1803
     17 C          59.7550  -11.1340   11.1270 C.3     1  UNL1        0.1859
     18 O          60.2120  -10.0260   10.3790 O.3     1  UNL1       -0.2675
     19 P          59.7950   -8.5590   10.8550 P.3     1  UNL1        0.5327
     20 O          61.0640   -7.7370   10.7510 O.3     1  UNL1       -0.1145
     21 O          59.3100   -8.8070   12.2600 O.3     1  UNL1       -0.1145
     22 O          58.6760   -8.1950    9.9190 O.2     1  UNL1       -0.2224
@<TRIPOS>BOND
     1     1     2    2
     2     2     3   am
     3     2     4    1
     4     4     5   ar
     5     4     7   ar
     6     5     6    1
     7     5     9   ar
     8     7     8   ar
     9     8     9   ar
    10    10     9    1
    11    10    11    1
    12    10    15    1
    13    11    12    1
    14    11    14    1
    15    12    13    1
    16    12    16    1
    17    15    16    1
    18    16    17    1
    19    17    18    1
    20    18    19    1
    21    19    20    1
    22    19    21    1
    23    19    22    2
