4ZNP_AMZ_A_101
 OpenBabel10091713583D
Coordinates from PDB:4ZNP:A:101 Model:1 without hydrogens
 22 23  0  0  0  0  0  0  0  0999 V2000
   57.3760  -18.3270    8.1790 O   0  0  0  0  0  0  0  0  0  0  0  0
   56.8360  -17.2480    8.1110 C   0  0  0  0  0  0  0  0  0  0  0  0
   55.6720  -17.0830    7.5080 N   0  0  0  0  0  0  0  0  0  0  0  0
   57.4930  -16.0580    8.6700 C   0  0  0  0  0  0  0  0  0  0  0  0
   58.8420  -16.0330    9.2400 C   0  0  0  0  0  0  0  0  0  0  0  0
   59.6670  -17.0960    9.3530 N   0  0  0  0  0  0  0  0  0  0  0  0
   57.0570  -14.7940    8.7910 N   0  0  0  0  0  0  0  0  0  0  0  0
   58.0470  -14.0480    9.3550 C   0  0  0  0  0  0  0  0  0  0  0  0
   59.1420  -14.7980    9.6260 N   0  0  0  0  0  0  0  0  0  0  0  0
   60.4040  -14.3060   10.2430 C   0  0  1  0  0  0  0  0  0  0  0  0
   61.1650  -13.4760    9.2320 C   0  0  1  0  0  0  0  0  0  0  0  0
   61.7390  -12.3490   10.0510 C   0  0  2  0  0  0  0  0  0  0  0  0
   63.0400  -12.7110   10.5310 O   0  0  0  0  0  0  0  0  0  0  0  0
   62.1840  -14.2550    8.5860 O   0  0  0  0  0  0  0  0  0  0  0  0
   60.1140  -13.4320   11.3310 O   0  0  0  0  0  0  0  0  0  0  0  0
   60.8120  -12.2140   11.2310 C   0  0  2  0  0  0  0  0  0  0  0  0
   59.7550  -11.1340   11.1270 C   0  0  0  0  0  0  0  0  0  0  0  0
   60.2120  -10.0260   10.3790 O   0  0  0  0  0  0  0  0  0  0  0  0
   59.7950   -8.5590   10.8550 P   0  0  0  0  0  0  0  0  0  0  0  0
   61.0640   -7.7370   10.7510 O   0  0  0  0  0  0  0  0  0  0  0  0
   59.3100   -8.8070   12.2600 O   0  0  0  0  0  0  0  0  0  0  0  0
   58.6760   -8.1950    9.9190 O   0  0  0  0  0  0  0  0  0  0  0  0
  1  2  2  0  0  0  0
  2  3  1  0  0  0  0
  2  4  1  0  0  0  0
  4  5  2  0  0  0  0
  4  7  1  0  0  0  0
  5  6  1  0  0  0  0
  5  9  1  0  0  0  0
  7  8  2  0  0  0  0
  8  9  1  0  0  0  0
 10  9  1  6  0  0  0
 10 11  1  0  0  0  0
 10 15  1  0  0  0  0
 11 12  1  0  0  0  0
 11 14  1  1  0  0  0
 12 13  1  1  0  0  0
 12 16  1  0  0  0  0
 15 16  1  0  0  0  0
 16 17  1  6  0  0  0
 17 18  1  0  0  0  0
 18 19  1  0  0  0  0
 19 20  1  0  0  0  0
 19 21  1  0  0  0  0
 19 22  2  0  0  0  0
A    1
O5
A    2
C6
A    3
N2
A    4
C3A
A    5
C7A
A    6
N3
A    7
N1
A    8
C5
A    9
N
A   10
C1
A   11
C2
A   12
C3
A   13
O2
A   14
O1
A   15
O
A   16
C
A   17
C4
A   18
O3
A   19
P
A   20
OP1
A   21
O4
A   22
OP2
M  END
>  <InstanceId>
4ZNP_AMZ_A_101

>  <ChemCompId>
AMZ

>  <PdbId>
4ZNP

>  <ChainId>
A

>  <ResidueNumber>
101

>  <InsertionCode>


>  <Model>
1

>  <AltIds>


>  <MissingHeavyAtoms>
0

>  <ObservedFormula>
C9 N4 O8 P

>  <Name>
AMINOIMIDAZOLE 4-CARBOXAMIDE RIBONUCLEOTIDE

>  <SystematicName>
[(2R,3S,4R,5R)-5-(5-amino-4-aminocarbonyl-imidazol-1-yl)-3,4-dihydroxy-oxolan-2-yl]methyl dihydrogen phosphate

>  <Synonyms>
AICAR

>  <Type>
NON-POLYMER

>  <Formula>
C9 H15 N4 O8 P

>  <MolecularWeight>
338.211

>  <ModifiedDate>
2011-06-04

>  <Parent>


>  <OneLetterCode>


>  <SubcomponentList>


>  <AmbiguousFlag>
N

>  <InChI>
InChI=1S/C9H15N4O8P/c10-7-4(8(11)16)12-2-13(7)9-6(15)5(14)3(21-9)1-20-22(17,18)19/h2-3,5-6,9,14-15H,1,10H2,(H2,11,16)(H2,17,18,19)/t3-,5-,6-,9-/m1/s1

>  <InChIKey>
NOTGFIUVDGNKRI-UUOKFMHZSA-N

>  <SMILES>
c1nc(c(n1[C@H]2[C@@H]([C@@H]([C@H](O2)COP(=O)(O)O)O)O)N)C(=O)N

$$$$
