@<TRIPOS>MOLECULE
1LVJ_PMZ_A_47
 23 25 0 0 0
SMALL
GASTEIGER
****
Coordinates from PDB:1LVJ:A:47 Model:1 without hydrogens
@<TRIPOS>ATOM
      1 S         -21.9850    8.8020    6.0990 S.3     1  UNL1       -0.0844
      2 N         -24.8150    7.9550    6.4770 N.pl3   1  UNL1       -0.2861
      3 C         -24.5770    7.1350    8.7320 C.ar    1  UNL1        0.0182
      4 C         -23.7570    6.9120    9.8460 C.ar    1  UNL1        0.0360
      5 C         -22.4130    7.2710    9.8100 C.ar    1  UNL1        0.0034
      6 C         -21.8800    7.8490    8.6630 C.ar    1  UNL1        0.0078
      7 C         -22.6850    8.0730    7.5490 C.ar    1  UNL1        0.0431
      8 C         -24.0390    7.7180    7.5760 C.ar    1  UNL1        0.0577
      9 C         -22.9130    7.7320    5.0460 C.ar    1  UNL1        0.0431
     10 C         -22.3230    7.1930    3.8990 C.ar    1  UNL1        0.0077
     11 C         -23.0630    6.3500    3.0650 C.ar    1  UNL1        0.0006
     12 C         -24.3930    6.0520    3.3790 C.ar    1  UNL1        0.0013
     13 C         -24.9760    6.5940    4.5250 C.ar    1  UNL1        0.0153
     14 C         -24.2430    7.4280    5.3580 C.ar    1  UNL1        0.0576
     15 C         -26.2940    7.9710    6.5970 C.3     1  UNL1        0.0970
     16 C         -26.9970    6.6150    6.9390 C.3     1  UNL1        0.0391
     17 C         -27.9320    6.0910    5.7960 C.3     1  UNL1        0.0739
     18 N         -28.4800    4.7170    5.9290 N.3     1  UNL1       -0.2703
     19 C         -27.5340    3.8210    6.6430 C.3     1  UNL1        0.0897
     20 C         -28.8580    4.1650    4.5820 C.3     1  UNL1        0.0897
     21 C         -24.3200    6.2800   11.0870 C.2     1  UNL1        0.1735
     22 C         -25.6600    5.5850   11.0920 C.3     1  UNL1        0.0773
     23 O         -23.6540    6.2720   12.1100 O.2     1  UNL1       -0.2913
@<TRIPOS>BOND
     1     1     7    1
     2     1     9    1
     3     2     8    1
     4     2    14    1
     5     2    15    1
     6     3     4   ar
     7     3     8   ar
     8     4     5   ar
     9     4    21    1
    10     5     6   ar
    11     6     7   ar
    12     7     8   ar
    13     9    10   ar
    14     9    14   ar
    15    10    11   ar
    16    11    12   ar
    17    12    13   ar
    18    13    14   ar
    19    15    16    1
    20    16    17    1
    21    17    18    1
    22    18    19    1
    23    18    20    1
    24    21    22    1
    25    21    23    2
