1LVJ_PMZ_A_47
 OpenBabel10091713573D
Coordinates from PDB:1LVJ:A:47 Model:1 without hydrogens
 23 25  0  0  0  0  0  0  0  0999 V2000
  -21.9850    8.8020    6.0990 S   0  0  0  0  0  0  0  0  0  0  0  0
  -24.8150    7.9550    6.4770 N   0  0  0  0  0  0  0  0  0  0  0  0
  -24.5770    7.1350    8.7320 C   0  0  0  0  0  0  0  0  0  0  0  0
  -23.7570    6.9120    9.8460 C   0  0  0  0  0  0  0  0  0  0  0  0
  -22.4130    7.2710    9.8100 C   0  0  0  0  0  0  0  0  0  0  0  0
  -21.8800    7.8490    8.6630 C   0  0  0  0  0  0  0  0  0  0  0  0
  -22.6850    8.0730    7.5490 C   0  0  0  0  0  0  0  0  0  0  0  0
  -24.0390    7.7180    7.5760 C   0  0  0  0  0  0  0  0  0  0  0  0
  -22.9130    7.7320    5.0460 C   0  0  0  0  0  0  0  0  0  0  0  0
  -22.3230    7.1930    3.8990 C   0  0  0  0  0  0  0  0  0  0  0  0
  -23.0630    6.3500    3.0650 C   0  0  0  0  0  0  0  0  0  0  0  0
  -24.3930    6.0520    3.3790 C   0  0  0  0  0  0  0  0  0  0  0  0
  -24.9760    6.5940    4.5250 C   0  0  0  0  0  0  0  0  0  0  0  0
  -24.2430    7.4280    5.3580 C   0  0  0  0  0  0  0  0  0  0  0  0
  -26.2940    7.9710    6.5970 C   0  0  0  0  0  0  0  0  0  0  0  0
  -26.9970    6.6150    6.9390 C   0  0  0  0  0  0  0  0  0  0  0  0
  -27.9320    6.0910    5.7960 C   0  0  0  0  0  0  0  0  0  0  0  0
  -28.4800    4.7170    5.9290 N   0  0  0  0  0  0  0  0  0  0  0  0
  -27.5340    3.8210    6.6430 C   0  0  0  0  0  0  0  0  0  0  0  0
  -28.8580    4.1650    4.5820 C   0  0  0  0  0  0  0  0  0  0  0  0
  -24.3200    6.2800   11.0870 C   0  0  0  0  0  0  0  0  0  0  0  0
  -25.6600    5.5850   11.0920 C   0  0  0  0  0  0  0  0  0  0  0  0
  -23.6540    6.2720   12.1100 O   0  0  0  0  0  0  0  0  0  0  0  0
  1  7  1  0  0  0  0
  1  9  1  0  0  0  0
  2  8  1  0  0  0  0
  2 14  1  0  0  0  0
  2 15  1  0  0  0  0
  3  4  2  0  0  0  0
  3  8  1  0  0  0  0
  4  5  1  0  0  0  0
  4 21  1  0  0  0  0
  5  6  2  0  0  0  0
  6  7  1  0  0  0  0
  7  8  2  0  0  0  0
  9 10  2  0  0  0  0
  9 14  1  0  0  0  0
 10 11  1  0  0  0  0
 11 12  2  0  0  0  0
 12 13  1  0  0  0  0
 13 14  2  0  0  0  0
 15 16  1  0  0  0  0
 16 17  1  0  0  0  0
 17 18  1  0  0  0  0
 18 19  1  0  0  0  0
 18 20  1  0  0  0  0
 21 22  1  0  0  0  0
 21 23  2  0  0  0  0
A    1
S5
A    2
N1
A    3
C1
A    4
C2
A    5
C3
A    6
C4
A    7
C5
A    8
C6
A    9
C7
A   10
C8
A   11
C9
A   12
C10
A   13
C11
A   14
C12
A   15
CA1
A   16
CB1
A   17
CG
A   18
ND
A   19
CE1
A   20
CE2
A   21
CA2
A   22
CB2
A   23
OB3
M  END
>  <InstanceId>
1LVJ_PMZ_A_47

>  <ChemCompId>
PMZ

>  <PdbId>
1LVJ

>  <ChainId>
A

>  <ResidueNumber>
47

>  <InsertionCode>


>  <Model>
1

>  <AltIds>


>  <MissingHeavyAtoms>
0

>  <ObservedFormula>
C19 N2 O S

>  <Name>
1-[10-(3-DIMETHYLAMINO-PROPYL)-10H-PHENOTHIAZIN-2-YL]-ETHANONE

>  <SystematicName>
1-[10-(3-dimethylaminopropyl)phenothiazin-2-yl]ethanone

>  <Synonyms>
ACETYLPROMAZINE

>  <Type>
NON-POLYMER

>  <Formula>
C19 H22 N2 O S

>  <MolecularWeight>
326.456

>  <ModifiedDate>
2011-06-04

>  <Parent>


>  <OneLetterCode>


>  <SubcomponentList>


>  <AmbiguousFlag>
N

>  <InChI>
InChI=1S/C19H22N2OS/c1-14(22)15-9-10-19-17(13-15)21(12-6-11-20(2)3)16-7-4-5-8-18(16)23-19/h4-5,7-10,13H,6,11-12H2,1-3H3

>  <InChIKey>
NOSIYYJFMPDDSA-UHFFFAOYSA-N

>  <SMILES>
CC(=O)c1ccc2c(c1)N(c3ccccc3S2)CCCN(C)C

$$$$
