REMARK  9 active torsions:
REMARK  status: ('A' for Active; 'I' for Inactive)
REMARK    1  A    between atoms: O2_3  and  C1_2 
REMARK    2  A    between atoms: C2_4  and  C1_2 
REMARK    3  A    between atoms: N1_5  and  C2_4 
REMARK    4  A    between atoms: C3_6  and  C2_4 
REMARK    5  A    between atoms: C4_7  and  C3_6 
REMARK    6  A    between atoms: C5_8  and  C4_7 
REMARK    7  A    between atoms: C6_9  and  C5_8 
REMARK    8  A    between atoms: N2_10  and  C6_9 
REMARK    9  A    between atoms: C7_11  and  N2_10 
ROOT
ATOM      1  C3  <1> d          -3.518  -1.742  -1.363  0.00  0.00     0.046 C 
ENDROOT
BRANCH   1   2
ATOM      2  C2  <1> d          -2.800  -0.878  -0.331  0.00  0.00     0.314 C 
BRANCH   2   3
ATOM      3  C1  <1> d          -3.662  -0.250   0.754  0.00  0.00     0.173 C 
ATOM      4  O1  <1> d          -4.275  -0.868   1.617  0.00  0.00    -0.648 OA
BRANCH   3   5
ATOM      5  O2  <1> d          -3.660   1.108   0.654  0.00  0.00    -0.775 OA
ATOM      6  H2  <1> d          -3.676   1.579   1.512  0.00  0.00     0.167 HD
ENDBRANCH   3   5
ENDBRANCH   2   3
BRANCH   2   7
ATOM      7  N1  <1> d          -1.771  -1.660   0.354  0.00  0.00     0.093 N 
ATOM      8  H3  <1> d          -1.114  -2.038  -0.331  0.00  0.00     0.314 HD
ATOM      9  H4  <1> d          -1.228  -0.997   0.894  0.00  0.00     0.314 HD
ENDBRANCH   2   7
ENDBRANCH   1   2
BRANCH   1  10
ATOM     10  C4  <1> d          -4.861  -1.137  -1.802  0.00  0.00     0.004 C 
BRANCH  10  11
ATOM     11  C5  <1> d          -5.243  -1.437  -3.260  0.00  0.00     0.020 C 
BRANCH  11  12
ATOM     12  C6  <1> d          -5.438  -0.183  -4.117  0.00  0.00     0.121 C 
BRANCH  12  13
ATOM     13  N2  <1> d          -4.195   0.541  -4.310  0.00  0.00    -0.379 N 
ATOM     14  H13 <1> d          -3.459   0.037  -4.801  0.00  0.00     0.160 HD
BRANCH  13  15
ATOM     15  C7  <1> d          -4.146   1.924  -4.395  0.00  0.00     0.087 C 
ATOM     16  N3  <1> d          -3.715   2.567  -5.436  0.00  0.00    -0.288 NA
ATOM     17  H14 <1> d          -3.068   1.971  -5.964  0.00  0.00     0.188 HD
ATOM     18  C8  <1> d          -4.946   2.744  -3.406  0.00  0.00     0.090 C 
ENDBRANCH  13  15
ENDBRANCH  12  13
ENDBRANCH  11  12
ENDBRANCH  10  11
ENDBRANCH   1  10
TORSDOF 9
