@<TRIPOS>MOLECULE
3DIR_IEL_A_175
 30 29 0 0 0
SMALL
GASTEIGER

@<TRIPOS>ATOM
      1 O1         -4.2747   -0.8681    1.6171 O.2     1  <1>        -0.2493
      2 C1         -3.6623   -0.2499    0.7545 C.2     1  <1>         0.3217
      3 O2         -3.6596    1.1079    0.6542 O.3     1  <1>        -0.4795
      4 C2         -2.7995   -0.8782   -0.3306 C.3     1  <1>         0.1032
      5 H1         -2.3065   -0.0656   -0.8691 H       1  <1>         0.0574
      6 N1         -1.7707   -1.6604    0.3543 N.3     1  <1>        -0.3184
      7 C3         -3.5177   -1.7425   -1.3632 C.3     1  <1>        -0.0273
      8 C4         -4.8606   -1.1375   -1.8020 C.3     1  <1>        -0.0477
      9 C5         -5.2426   -1.4372   -3.2597 C.3     1  <1>        -0.0168
     10 C6         -5.4380   -0.1826   -4.1169 C.3     1  <1>         0.0779
     11 N2         -4.1946    0.5407   -4.3104 N.pl3   1  <1>        -0.2381
     12 C7         -4.1463    1.9239   -4.3952 C.2     1  <1>         0.2750
     13 N3         -3.7148    2.5669   -5.4361 N.2     1  <1>        -0.1042
     14 C8         -4.9457    2.7436   -3.4058 C.3     1  <1>         0.0384
     15 H2         -3.6765    1.5792    1.5124 H       1  <1>         0.2951
     16 H3         -1.1141   -2.0376   -0.3311 H       1  <1>         0.1190
     17 H4         -1.2282   -0.9966    0.8943 H       1  <1>         0.1190
     18 H5         -2.8598   -1.7910   -2.2370 H       1  <1>         0.0286
     19 H6         -3.6468   -2.7794   -1.0226 H       1  <1>         0.0286
     20 H7         -4.8673   -0.0571   -1.6081 H       1  <1>         0.0267
     21 H8         -5.6419   -1.5403   -1.1480 H       1  <1>         0.0267
     22 H9         -6.2123   -1.9403   -3.2500 H       1  <1>         0.0301
     23 H10        -4.5787   -2.1535   -3.7579 H       1  <1>         0.0301
     24 H11        -6.2056    0.4591   -3.6734 H       1  <1>         0.0724
     25 H12        -5.8751   -0.4637   -5.0784 H       1  <1>         0.0724
     26 H13        -3.4588    0.0368   -4.8009 H       1  <1>         0.2910
     27 H14        -3.0684    1.9712   -5.9639 H       1  <1>         0.3629
     28 H15        -5.6810    3.3592   -3.9362 H       1  <1>         0.0351
     29 H16        -5.4576    2.0889   -2.7073 H       1  <1>         0.0351
     30 H17        -4.3060    3.3884   -2.8018 H       1  <1>         0.0351
@<TRIPOS>BOND
     1     2     1    2
     2     3     2    1
     3     4     2    1
     4     4     5    1
     5     6     4    1
     6     7     4    1
     7     8     7    1
     8     9     8    1
     9    10     9    1
    10    11    10    1
    11    12    11    1
    12    13    12    2
    13    14    12    1
    14     3    15    1
    15     6    16    1
    16     6    17    1
    17     7    18    1
    18     7    19    1
    19     8    20    1
    20     8    21    1
    21     9    22    1
    22     9    23    1
    23    10    24    1
    24    10    25    1
    25    11    26    1
    26    13    27    1
    27    14    28    1
    28    14    29    1
    29    14    30    1
