@<TRIPOS>MOLECULE
1J7T_PAR_A_45
 87 90 0 0 0
SMALL
GASTEIGER

@<TRIPOS>ATOM
      1 C           3.0623   18.2481    3.6002 C.3     1  UNL1        0.1776
      2 H           2.4004   18.8679    3.0464 H       1  UNL1        0.0927
      3 O           3.9612   17.8526    2.5627 O.3     1  UNL1       -0.3422
      4 C           4.2738   19.0482    1.8591 C.3     1  UNL1        0.1055
      5 H           4.8717   19.5720    2.6199 H       1  UNL1        0.0639
      6 C           3.0393   19.7934    1.3122 C.3     1  UNL1        0.0355
      7 H           3.8596   20.4955    1.5162 H       1  UNL1        0.0485
      8 C           2.8272   21.1384    0.5820 C.3     1  UNL1       -0.0175
      9 C           4.3111   21.6786    0.0342 C.3     1  UNL1        0.0351
     10 H           4.3036   21.7400   -1.0613 H       1  UNL1        0.0485
     11 N           4.5320   23.0356    0.5797 N.3     1  UNL1       -0.3250
     12 C           5.6354   20.7050    0.4740 C.3     1  UNL1        0.0990
     13 H           5.9483   21.0348    1.4800 H       1  UNL1        0.0636
     14 C           5.1768   19.1496    0.5693 C.3     1  UNL1        0.1166
     15 H           4.5838   19.4221   -0.2985 H       1  UNL1        0.0650
     16 O           5.4009   17.8699    0.0331 O.3     1  UNL1       -0.3402
     17 C           6.3008   17.8598   -1.0712 C.3     1  UNL1        0.1884
     18 H           6.0909   18.7320   -1.6548 H       1  UNL1        0.0938
     19 C           7.5860   17.7202   -0.3646 C.3     1  UNL1        0.1345
     20 H           7.6256   18.3185    0.5774 H       1  UNL1        0.0671
     21 O           8.5603   18.1390   -1.3214 O.3     1  UNL1       -0.3841
     22 C           7.3967   16.2493   -0.0289 C.3     1  UNL1        0.1205
     23 H           6.6248   16.2345    0.7321 H       1  UNL1        0.0651
     24 O           8.4270   15.7529    0.7891 O.3     1  UNL1       -0.3410
     25 C           9.7802   16.2489    0.6211 C.3     1  UNL1        0.1776
     26 H          10.1082   15.7832   -0.3268 H       1  UNL1        0.0927
     27 C          10.7227   15.9034    1.8341 C.3     1  UNL1        0.0853
     28 H          10.6860   14.8166    2.0143 H       1  UNL1        0.0535
     29 N          10.3293   16.5863    3.0745 N.3     1  UNL1       -0.3211
     30 C          12.1635   16.3685    1.4716 C.3     1  UNL1        0.1033
     31 H          12.5006   17.1791    2.1228 H       1  UNL1        0.0637
     32 O          13.0390   15.2730    1.6868 O.3     1  UNL1       -0.3874
     33 C          12.2347   16.8183   -0.0004 C.3     1  UNL1        0.1100
     34 H          11.9907   15.9535   -0.6250 H       1  UNL1        0.0646
     35 O          13.5466   17.1402   -0.4084 O.3     1  UNL1       -0.3866
     36 C          11.2239   17.9484   -0.2733 C.3     1  UNL1        0.1022
     37 H          10.9241   17.8750   -1.3185 H       1  UNL1        0.0636
     38 O          10.0142   17.6806    0.4720 O.3     1  UNL1       -0.3425
     39 C          11.7831   19.3800   -0.0650 C.3     1  UNL1        0.0222
     40 N          11.4051   20.3027   -1.1351 N.3     1  UNL1       -0.3276
     41 C           6.8735   15.5517   -1.3555 C.3     1  UNL1        0.1135
     42 H           7.8332   15.3773   -1.9010 H       1  UNL1        0.0647
     43 O           6.1423   16.6900   -1.9502 O.3     1  UNL1       -0.3405
     44 C           5.8720   14.4041   -1.3993 C.3     1  UNL1        0.0730
     45 O           5.5026   14.1670   -2.7726 O.3     1  UNL1       -0.3924
     46 O           6.7408   20.9532   -0.3693 O.3     1  UNL1       -0.3876
     47 N           2.5632   18.8336    0.2600 N.3     1  UNL1       -0.3250
     48 C           3.5384   19.1370    4.7571 C.3     1  UNL1        0.0853
     49 H           4.3716   19.7495    4.4564 H       1  UNL1        0.0535
     50 N           3.9578   18.4155    5.9491 N.3     1  UNL1       -0.3211
     51 C           2.3480   20.0802    5.0537 C.3     1  UNL1        0.1033
     52 H           2.5139   20.6258    5.9985 H       1  UNL1        0.0637
     53 O           2.2357   21.0729    4.0069 O.3     1  UNL1       -0.3874
     54 C           0.9853   19.2952    5.1445 C.3     1  UNL1        0.1109
     55 H           0.1568   19.9877    4.9201 H       1  UNL1        0.0646
     56 O           0.8455   18.9101    6.5167 O.3     1  UNL1       -0.3865
     57 C           0.8355   17.9875    4.2754 C.3     1  UNL1        0.1129
     58 H           0.1879   17.2897    4.8306 H       1  UNL1        0.0647
     59 O           2.1153   17.3049    4.0936 O.3     1  UNL1       -0.3415
     60 C           0.1734   18.1480    2.8802 C.3     1  UNL1        0.0730
     61 O          -0.1070   19.4977    2.5393 O.3     1  UNL1       -0.3924
     62 H           2.1760   21.1143   -0.3022 H       1  UNL1        0.0297
     63 H           2.3893   21.8816    1.2474 H       1  UNL1        0.0297
     64 H           3.6319   23.4072    0.8965 H       1  UNL1        0.1185
     65 H           4.8149   23.6623   -0.1742 H       1  UNL1        0.1185
     66 H           8.6199   19.0975   -1.2690 H       1  UNL1        0.2101
     67 H           9.8809   15.9262    3.7077 H       1  UNL1        0.1187
     68 H           9.6900   17.3629    2.8986 H       1  UNL1        0.1187
     69 H          12.6524   14.4942    1.2450 H       1  UNL1        0.2100
     70 H          13.5950   16.9952   -1.3807 H       1  UNL1        0.2100
     71 H          12.8819   19.4006   -0.0631 H       1  UNL1        0.0448
     72 H          11.4911   19.8189    0.8925 H       1  UNL1        0.0448
     73 H          10.4100   20.4956   -1.1035 H       1  UNL1        0.1183
     74 H          11.6057   19.9002   -2.0472 H       1  UNL1        0.1183
     75 H           6.2696   13.4474   -1.0603 H       1  UNL1        0.0584
     76 H           4.9979   14.6764   -0.8044 H       1  UNL1        0.0584
     77 H           5.0778   14.9659   -3.1434 H       1  UNL1        0.2095
     78 H           7.1540   21.7660   -0.0002 H       1  UNL1        0.2100
     79 H           1.5606   18.8172    0.2041 H       1  UNL1        0.1185
     80 H           2.9049   19.0369   -0.6901 H       1  UNL1        0.1185
     81 H           3.2045   17.8223    6.2714 H       1  UNL1        0.1187
     82 H           4.1268   19.0950    6.6994 H       1  UNL1        0.1187
     83 H           3.0312   21.6350    4.0877 H       1  UNL1        0.2100
     84 H           0.7119   19.7445    7.0096 H       1  UNL1        0.2100
     85 H           0.7956   17.7051    2.0916 H       1  UNL1        0.0584
     86 H          -0.7750   17.6067    2.8457 H       1  UNL1        0.0584
     87 H           0.7299   19.9233    2.2831 H       1  UNL1        0.2095
@<TRIPOS>BOND
     1     1    48    1
     2     1    59    1
     3     1     3    1
     4     1     2    1
     5     4     6    1
     6     4     5    1
     7     4     3    1
     8     6     7    1
     9     6     8    1
    10     6    47    1
    11     8     9    1
    12     8    62    1
    13     8    63    1
    14     9    12    1
    15     9    11    1
    16     9    10    1
    17    11    64    1
    18    11    65    1
    19    12    13    1
    20    12    14    1
    21    12    46    1
    22    14     4    1
    23    14    16    1
    24    14    15    1
    25    16    17    1
    26    17    18    1
    27    17    19    1
    28    17    43    1
    29    19    22    1
    30    19    21    1
    31    19    20    1
    32    21    66    1
    33    22    23    1
    34    22    24    1
    35    22    41    1
    36    25    27    1
    37    25    38    1
    38    25    26    1
    39    25    24    1
    40    27    30    1
    41    27    29    1
    42    27    28    1
    43    29    67    1
    44    29    68    1
    45    30    32    1
    46    30    31    1
    47    32    69    1
    48    33    30    1
    49    33    34    1
    50    33    35    1
    51    35    70    1
    52    36    33    1
    53    36    37    1
    54    36    38    1
    55    36    39    1
    56    39    40    1
    57    39    71    1
    58    39    72    1
    59    40    73    1
    60    40    74    1
    61    41    43    1
    62    41    44    1
    63    41    42    1
    64    44    45    1
    65    44    75    1
    66    44    76    1
    67    45    77    1
    68    46    78    1
    69    47    79    1
    70    47    80    1
    71    48    51    1
    72    48    50    1
    73    48    49    1
    74    50    81    1
    75    50    82    1
    76    51    54    1
    77    51    53    1
    78    51    52    1
    79    53    83    1
    80    54    55    1
    81    54    56    1
    82    54    57    1
    83    56    84    1
    84    57    59    1
    85    57    60    1
    86    57    58    1
    87    60    61    1
    88    60    85    1
    89    60    86    1
    90    61    87    1
