REMARK  22 active torsions:
REMARK  status: ('A' for Active; 'I' for Inactive)
REMARK    1  A    between atoms: C_1  and  O_2 
REMARK    2  A    between atoms: C_3  and  O_2 
REMARK    3  A    between atoms: C_4  and  N_32 
REMARK    4  A    between atoms: C_6  and  N_7 
REMARK    5  A    between atoms: C_8  and  O_31 
REMARK    6  A    between atoms: C_9  and  O_10 
REMARK    7  A    between atoms: O_10  and  C_11 
REMARK    8  A    between atoms: C_12  and  O_13 
REMARK    9  A    between atoms: C_14  and  O_15 
REMARK   10  A    between atoms: C_16  and  O_15 
REMARK   11  A    between atoms: C_17  and  N_18 
REMARK   12  A    between atoms: C_19  and  O_20 
REMARK   13  A    between atoms: C_21  and  O_22 
REMARK   14  A    between atoms: C_23  and  C_25 
REMARK   15  A    between atoms: C_25  and  N_26 
REMARK   16  A    between atoms: C_27  and  C_29 
REMARK   17  A    between atoms: C_29  and  O_30 
REMARK   18  A    between atoms: C_33  and  N_34 
REMARK   19  A    between atoms: C_35  and  O_36 
REMARK   20  A    between atoms: C_37  and  O_38 
REMARK   21  A    between atoms: C_39  and  C_41 
REMARK   22  A    between atoms: C_41  and  O_42 
ROOT
ATOM      1  C   UNL d   1       4.274  19.048   1.859  0.00  0.00     0.189 C 
ATOM      2  C   UNL d   1       3.039  19.793   1.312  0.00  0.00     0.251 C 
ATOM      3  C   UNL d   1       2.827  21.138   0.582  0.00  0.00     0.076 C 
ATOM      4  C   UNL d   1       4.311  21.679   0.034  0.00  0.00     0.251 C 
ATOM      5  C   UNL d   1       5.635  20.705   0.474  0.00  0.00     0.182 C 
ATOM      6  C   UNL d   1       5.177  19.150   0.569  0.00  0.00     0.186 C 
ENDROOT
BRANCH   6   7
ATOM      7  O   UNL d   1       5.401  17.870   0.033  0.00  0.00    -0.348 OA
BRANCH   7   8
ATOM      8  C   UNL d   1       6.301  17.860  -1.071  0.00  0.00     0.292 C 
ATOM      9  C   UNL d   1       7.586  17.720  -0.365  0.00  0.00     0.205 C 
ATOM     10  C   UNL d   1       7.397  16.249  -0.029  0.00  0.00     0.189 C 
ATOM     11  C   UNL d   1       6.873  15.552  -1.355  0.00  0.00     0.180 C 
ATOM     12  O   UNL d   1       6.142  16.690  -1.950  0.00  0.00    -0.348 OA
BRANCH   9  13
ATOM     13  O   UNL d   1       8.560  18.139  -1.321  0.00  0.00    -0.388 OA
ATOM     14  H   UNL d   1       8.620  19.098  -1.269  0.00  0.00     0.210 HD
ENDBRANCH   9  13
BRANCH  10  15
ATOM     15  O   UNL d   1       8.427  15.753   0.789  0.00  0.00    -0.348 OA
BRANCH  15  16
ATOM     16  C   UNL d   1       9.780  16.249   0.621  0.00  0.00     0.296 C 
ATOM     17  C   UNL d   1      10.723  15.903   1.834  0.00  0.00     0.303 C 
ATOM     18  C   UNL d   1      12.164  16.369   1.472  0.00  0.00     0.187 C 
ATOM     19  C   UNL d   1      12.235  16.818  -0.000  0.00  0.00     0.179 C 
ATOM     20  C   UNL d   1      11.224  17.948  -0.273  0.00  0.00     0.183 C 
ATOM     21  O   UNL d   1      10.014  17.681   0.472  0.00  0.00    -0.349 OA
BRANCH  17  22
ATOM     22  N   UNL d   1      10.329  16.586   3.075  0.00  0.00     0.090 N 
ATOM     23  H   UNL d   1       9.881  15.926   3.708  0.00  0.00     0.313 HD
ATOM     24  H   UNL d   1       9.690  17.363   2.899  0.00  0.00     0.313 HD
ENDBRANCH  17  22
BRANCH  18  25
ATOM     25  O   UNL d   1      13.039  15.273   1.687  0.00  0.00    -0.391 OA
ATOM     26  H   UNL d   1      12.652  14.494   1.245  0.00  0.00     0.210 HD
ENDBRANCH  18  25
BRANCH  19  27
ATOM     27  O   UNL d   1      13.547  17.140  -0.408  0.00  0.00    -0.390 OA
ATOM     28  H   UNL d   1      13.595  16.995  -1.381  0.00  0.00     0.210 HD
ENDBRANCH  19  27
BRANCH  20  29
ATOM     29  C   UNL d   1      11.783  19.380  -0.065  0.00  0.00     0.301 C 
BRANCH  29  30
ATOM     30  N   UNL d   1      11.405  20.303  -1.135  0.00  0.00     0.080 N 
ATOM     31  H   UNL d   1      10.410  20.496  -1.103  0.00  0.00     0.312 HD
ATOM     32  H   UNL d   1      11.606  19.900  -2.047  0.00  0.00     0.312 HD
ENDBRANCH  29  30
ENDBRANCH  20  29
ENDBRANCH  15  16
ENDBRANCH  10  15
BRANCH  11  33
ATOM     33  C   UNL d   1       5.872  14.404  -1.399  0.00  0.00     0.198 C 
BRANCH  33  34
ATOM     34  O   UNL d   1       5.503  14.167  -2.773  0.00  0.00    -0.398 OA
ATOM     35  H   UNL d   1       5.078  14.966  -3.143  0.00  0.00     0.209 HD
ENDBRANCH  33  34
ENDBRANCH  11  33
ENDBRANCH   7   8
ENDBRANCH   6   7
BRANCH   5  36
ATOM     36  O   UNL d   1       6.741  20.953  -0.369  0.00  0.00    -0.391 OA
ATOM     37  H   UNL d   1       7.154  21.766  -0.000  0.00  0.00     0.210 HD
ENDBRANCH   5  36
BRANCH   1  38
ATOM     38  O   UNL d   1       3.961  17.853   2.563  0.00  0.00    -0.349 OA
BRANCH  38  39
ATOM     39  C   UNL d   1       3.062  18.248   3.600  0.00  0.00     0.296 C 
ATOM     40  C   UNL d   1       3.538  19.137   4.757  0.00  0.00     0.303 C 
ATOM     41  C   UNL d   1       2.348  20.080   5.054  0.00  0.00     0.187 C 
ATOM     42  C   UNL d   1       0.985  19.295   5.144  0.00  0.00     0.180 C 
ATOM     43  C   UNL d   1       0.836  17.988   4.275  0.00  0.00     0.179 C 
ATOM     44  O   UNL d   1       2.115  17.305   4.094  0.00  0.00    -0.349 OA
BRANCH  40  45
ATOM     45  N   UNL d   1       3.958  18.416   5.949  0.00  0.00     0.090 N 
ATOM     46  H   UNL d   1       3.204  17.822   6.271  0.00  0.00     0.313 HD
ATOM     47  H   UNL d   1       4.127  19.095   6.699  0.00  0.00     0.313 HD
ENDBRANCH  40  45
BRANCH  41  48
ATOM     48  O   UNL d   1       2.236  21.073   4.007  0.00  0.00    -0.391 OA
ATOM     49  H   UNL d   1       3.031  21.635   4.088  0.00  0.00     0.210 HD
ENDBRANCH  41  48
BRANCH  42  50
ATOM     50  O   UNL d   1       0.846  18.910   6.517  0.00  0.00    -0.390 OA
ATOM     51  H   UNL d   1       0.712  19.744   7.010  0.00  0.00     0.210 HD
ENDBRANCH  42  50
BRANCH  43  52
ATOM     52  C   UNL d   1       0.173  18.148   2.880  0.00  0.00     0.198 C 
BRANCH  52  53
ATOM     53  O   UNL d   1      -0.107  19.498   2.539  0.00  0.00    -0.398 OA
ATOM     54  H   UNL d   1       0.730  19.923   2.283  0.00  0.00     0.209 HD
ENDBRANCH  52  53
ENDBRANCH  43  52
ENDBRANCH  38  39
ENDBRANCH   1  38
BRANCH   4  55
ATOM     55  N   UNL d   1       4.532  23.036   0.580  0.00  0.00     0.085 N 
ATOM     56  H   UNL d   1       3.632  23.407   0.896  0.00  0.00     0.313 HD
ATOM     57  H   UNL d   1       4.815  23.662  -0.174  0.00  0.00     0.313 HD
ENDBRANCH   4  55
BRANCH   2  58
ATOM     58  N   UNL d   1       2.563  18.834   0.260  0.00  0.00     0.085 N 
ATOM     59  H   UNL d   1       1.561  18.817   0.204  0.00  0.00     0.313 HD
ATOM     60  H   UNL d   1       2.905  19.037  -0.690  0.00  0.00     0.313 HD
ENDBRANCH   2  58
TORSDOF 22
