1MWL_GET_A_45
 OpenBabel10091713573D
Coordinates from PDB:1MWL:A:45 Model:1 without hydrogens
 74 76  0  0  0  0  0  0  0  0999 V2000
   12.1870   -6.8840    5.2250 C   0  0  2  0  0  0  0  0  0  0  0  0
   13.3100   -7.6250    4.8340 O   0  0  0  0  0  0  0  0  0  0  0  0
   10.9770   -7.4320    4.4320 C   0  0  2  0  0  0  0  0  0  0  0  0
   10.8170   -8.8830    4.6810 N   0  0  0  0  0  0  0  0  0  0  0  0
   11.1470   -7.1280    2.9070 C   0  0  1  0  0  0  0  0  0  0  0  0
   10.0900   -7.5890    2.1910 O   0  0  0  0  0  0  0  0  0  0  0  0
   11.3070   -5.5980    2.7260 C   0  0  2  0  0  0  0  0  0  0  0  0
   11.4610   -5.2730    1.3430 O   0  0  0  0  0  0  0  0  0  0  0  0
   12.5400   -5.1040    3.5510 C   0  0  2  0  0  0  0  0  0  0  0  0
   12.3850   -5.4540    4.9660 O   0  0  0  0  0  0  0  0  0  0  0  0
   12.7730   -3.5840    3.4560 C   0  0  2  0  0  0  0  0  0  0  0  0
   13.9160   -3.2200    4.1610 O   0  0  0  0  0  0  0  0  0  0  0  0
   11.5980   -2.7500    4.0220 C   0  0  0  0  0  0  0  0  0  0  0  0
   16.5230   -9.6140    6.8340 C   0  0  2  0  0  0  0  0  0  0  0  0
   17.6630   -9.8550    7.7410 N   0  0  0  0  0  0  0  0  0  0  0  0
   16.8610   -8.4500    5.8620 C   0  0  0  0  0  0  0  0  0  0  0  0
   15.6680   -8.1810    4.9090 C   0  0  2  0  0  0  0  0  0  0  0  0
   16.0330   -7.0720    3.9940 N   0  0  0  0  0  0  0  0  0  0  0  0
   14.3920   -7.8420    5.7420 C   0  0  2  0  0  0  0  0  0  0  0  0
   14.0610   -9.0230    6.6950 C   0  0  2  0  0  0  0  0  0  0  0  0
   12.9190   -8.7070    7.4550 O   0  0  0  0  0  0  0  0  0  0  0  0
   15.2500   -9.2640    7.6510 C   0  0  1  0  0  0  0  0  0  0  0  0
   14.9360  -10.3370    8.5260 O   0  0  0  0  0  0  0  0  0  0  0  0
   15.1380  -10.1240    9.9020 C   0  0  2  0  0  0  0  0  0  0  0  0
   15.5680  -11.4610   10.5490 C   0  0  2  0  0  0  0  0  0  0  0  0
   16.7920  -11.8950    9.9720 O   0  0  0  0  0  0  0  0  0  0  0  0
   14.4260  -12.5170   10.3280 C   0  0  1  0  0  0  0  0  0  0  0  0
   14.7550  -13.8620   10.9010 N   0  0  0  0  0  0  0  0  0  0  0  0
   15.6780  -14.5990   10.0030 C   0  0  0  0  0  0  0  0  0  0  0  0
   13.1070  -11.9740   10.9710 C   0  0  2  0  0  0  0  0  0  0  0  0
   13.3140  -11.7910   12.3720 O   0  0  0  0  0  0  0  0  0  0  0  0
   12.0090  -12.8810   10.8150 C   0  0  0  0  0  0  0  0  0  0  0  0
   12.7400  -10.5870   10.3820 C   0  0  0  0  0  0  0  0  0  0  0  0
   13.8830   -9.6520   10.5140 O   0  0  0  0  0  0  0  0  0  0  0  0
   12.0193   -6.9838    6.2770 H   0  0  0  0  0  0  0  0  0  0  0  0
   10.0868   -6.9416    4.7665 H   0  0  0  0  0  0  0  0  0  0  0  0
   11.6543   -9.3757    4.3702 H   0  0  0  0  0  0  0  0  0  0  0  0
   10.0078   -9.2292    4.1655 H   0  0  0  0  0  0  0  0  0  0  0  0
   12.0170   -7.6315    2.5402 H   0  0  0  0  0  0  0  0  0  0  0  0
    9.2785   -7.1538    2.4958 H   0  0  0  0  0  0  0  0  0  0  0  0
   10.4275   -5.1052    3.0846 H   0  0  0  0  0  0  0  0  0  0  0  0
   12.2540   -5.7096    0.9946 H   0  0  0  0  0  0  0  0  0  0  0  0
   13.3875   -5.5966    3.1221 H   0  0  0  0  0  0  0  0  0  0  0  0
   12.8723   -3.3757    2.4112 H   0  0  0  0  0  0  0  0  0  0  0  0
   13.7934   -3.4214    5.1019 H   0  0  0  0  0  0  0  0  0  0  0  0
   11.4893   -2.9506    5.0674 H   0  0  0  0  0  0  0  0  0  0  0  0
   10.6950   -3.0142    3.5124 H   0  0  0  0  0  0  0  0  0  0  0  0
   11.7975   -1.7088    3.8774 H   0  0  0  0  0  0  0  0  0  0  0  0
   16.3370  -10.5037    6.2695 H   0  0  0  0  0  0  0  0  0  0  0  0
   17.8491   -9.0122    8.2846 H   0  0  0  0  0  0  0  0  0  0  0  0
   18.4889  -10.0952    7.1927 H   0  0  0  0  0  0  0  0  0  0  0  0
   17.7225   -8.7118    5.2839 H   0  0  0  0  0  0  0  0  0  0  0  0
   17.0570   -7.5661    6.4323 H   0  0  0  0  0  0  0  0  0  0  0  0
   15.4502   -9.0507    4.3249 H   0  0  0  0  0  0  0  0  0  0  0  0
   16.2431   -6.2362    4.5396 H   0  0  0  0  0  0  0  0  0  0  0  0
   15.2537   -6.8801    3.3645 H   0  0  0  0  0  0  0  0  0  0  0  0
   14.5545   -6.9645    6.3323 H   0  0  0  0  0  0  0  0  0  0  0  0
   13.8786   -9.9038    6.1155 H   0  0  0  0  0  0  0  0  0  0  0  0
   13.0896   -7.9082    7.9782 H   0  0  0  0  0  0  0  0  0  0  0  0
   15.4339   -8.3765    8.2197 H   0  0  0  0  0  0  0  0  0  0  0  0
   15.8980   -9.3865   10.0550 H   0  0  0  0  0  0  0  0  0  0  0  0
   15.7245  -11.3380   11.6003 H   0  0  0  0  0  0  0  0  0  0  0  0
   16.6748  -12.0138    9.0165 H   0  0  0  0  0  0  0  0  0  0  0  0
   14.3092  -12.6544    9.2733 H   0  0  0  0  0  0  0  0  0  0  0  0
   13.8949  -14.3989   11.0119 H   0  0  0  0  0  0  0  0  0  0  0  0
   16.5821  -14.0393    9.8837 H   0  0  0  0  0  0  0  0  0  0  0  0
   15.2141  -14.7350    9.0484 H   0  0  0  0  0  0  0  0  0  0  0  0
   15.9034  -15.5542   10.4293 H   0  0  0  0  0  0  0  0  0  0  0  0
   13.5466  -12.6406   12.7782 H   0  0  0  0  0  0  0  0  0  0  0  0
   12.2726  -13.8339   11.2243 H   0  0  0  0  0  0  0  0  0  0  0  0
   11.7814  -12.9901    9.7752 H   0  0  0  0  0  0  0  0  0  0  0  0
   11.1530  -12.4965   11.3290 H   0  0  0  0  0  0  0  0  0  0  0  0
   11.8977  -10.1912   10.9099 H   0  0  0  0  0  0  0  0  0  0  0  0
   12.5025  -10.7015    9.3450 H   0  0  0  0  0  0  0  0  0  0  0  0
  1  2  1  0  0  0  0
  1  3  1  0  0  0  0
  1 10  1  0  0  0  0
  1 35  1  1  0  0  0
  2 19  1  0  0  0  0
  3  4  1  0  0  0  0
  3  5  1  0  0  0  0
  3 36  1  1  0  0  0
  4 37  1  0  0  0  0
  4 38  1  0  0  0  0
  5  6  1  0  0  0  0
  5  7  1  0  0  0  0
  5 39  1  6  0  0  0
  6 40  1  0  0  0  0
  7  8  1  0  0  0  0
  7  9  1  0  0  0  0
  7 41  1  1  0  0  0
  8 42  1  0  0  0  0
  9 10  1  0  0  0  0
  9 11  1  0  0  0  0
  9 43  1  6  0  0  0
 11 12  1  0  0  0  0
 11 13  1  0  0  0  0
 11 44  1  6  0  0  0
 12 45  1  0  0  0  0
 13 46  1  0  0  0  0
 13 47  1  0  0  0  0
 13 48  1  0  0  0  0
 14 15  1  0  0  0  0
 14 16  1  0  0  0  0
 14 22  1  0  0  0  0
 14 49  1  6  0  0  0
 15 50  1  0  0  0  0
 15 51  1  0  0  0  0
 16 17  1  0  0  0  0
 16 52  1  0  0  0  0
 16 53  1  0  0  0  0
 17 18  1  0  0  0  0
 17 19  1  0  0  0  0
 17 54  1  6  0  0  0
 18 55  1  0  0  0  0
 18 56  1  0  0  0  0
 19 20  1  0  0  0  0
 19 57  1  1  0  0  0
 20 21  1  0  0  0  0
 20 22  1  0  0  0  0
 20 58  1  6  0  0  0
 21 59  1  0  0  0  0
 22 23  1  0  0  0  0
 22 60  1  1  0  0  0
 23 24  1  0  0  0  0
 24 25  1  0  0  0  0
 24 34  1  0  0  0  0
 24 61  1  1  0  0  0
 25 26  1  0  0  0  0
 25 27  1  0  0  0  0
 25 62  1  1  0  0  0
 26 63  1  0  0  0  0
 27 28  1  0  0  0  0
 27 30  1  0  0  0  0
 27 64  1  6  0  0  0
 28 29  1  0  0  0  0
 28 65  1  0  0  0  0
 29 66  1  0  0  0  0
 29 67  1  0  0  0  0
 29 68  1  0  0  0  0
 30 31  1  1  0  0  0
 30 32  1  0  0  0  0
 30 33  1  0  0  0  0
 31 69  1  0  0  0  0
 32 70  1  0  0  0  0
 32 71  1  0  0  0  0
 32 72  1  0  0  0  0
 33 34  1  0  0  0  0
 33 73  1  0  0  0  0
 33 74  1  0  0  0  0
A    1
C11
A    2
O11
A    3
C21
A    4
N21
A    5
C31
A    6
O31
A    7
C41
A    8
O41
A    9
C51
A   10
O51
A   11
C61
A   12
O61
A   13
C71
A   14
C12
A   15
N12
A   16
C22
A   17
C32
A   18
N32
A   19
C42
A   20
C52
A   21
O52
A   22
C62
A   23
O62
A   24
C13
A   25
C23
A   26
O23
A   27
C33
A   28
N33
A   29
C93
A   30
C43
A   31
O43
A   32
C83
A   33
C53
A   34
O53
M  END
>  <InstanceId>
1MWL_GET_A_45

>  <ChemCompId>
GET

>  <PdbId>
1MWL

>  <ChainId>
A

>  <ResidueNumber>
45

>  <InsertionCode>


>  <Model>
1

>  <AltIds>


>  <MissingHeavyAtoms>
0

>  <ObservedFormula>
C20 N4 O10

>  <Name>
GENETICIN

>  <SystematicName>
(2R,3S,4R,5R,6S)-5-amino-6-[(1R,2S,3S,4R,6S)-4,6-diamino-3-[(2R,3R,4R,5R)-3,5-dihydroxy-5-methyl-4-methylamino-oxan-2-yl]oxy-2-hydroxy-cyclohexyl]oxy-2-(1-hydroxyethyl)oxane-3,4-diol

>  <Synonyms>
G418

>  <Type>
NON-POLYMER

>  <Formula>
C20 H40 N4 O10

>  <MolecularWeight>
496.552

>  <ModifiedDate>
2011-06-04

>  <Parent>


>  <OneLetterCode>


>  <SubcomponentList>


>  <AmbiguousFlag>
N

>  <InChI>
InChI=1S/C20H40N4O10/c1-6(25)14-11(27)10(26)9(23)18(32-14)33-15-7(21)4-8(22)16(12(15)28)34-19-13(29)17(24-3)20(2,30)5-31-19/h6-19,24-30H,4-5,21-23H2,1-3H3/t6-,7+,8-,9-,10-,11+,12+,13-,14-,15-,16+,17-,18-,19-,20+/m1/s1

>  <InChIKey>
BRZYSWJRSDMWLG-DJWUNRQOSA-N

>  <SMILES>
C[C@H]([C@@H]1[C@H]([C@@H]([C@H]([C@H](O1)O[C@@H]2[C@H](C[C@H]([C@@H]([C@H]2O)O[C@@H]3[C@@H]([C@H]([C@@](CO3)(C)O)NC)O)N)N)N)O)O)O

$$$$
