@<TRIPOS>MOLECULE
1MWL_GET_A_45
 34 36 0 0 0
SMALL
GASTEIGER
****
Coordinates from PDB:1MWL:A:45 Model:1 without hydrogens
@<TRIPOS>ATOM
      1 C          12.1870   -6.8840    5.2250 C.3     1  UNL1        0.2561
      2 O          13.3100   -7.6250    4.8340 O.3     1  UNL1       -0.3277
      3 C          10.9770   -7.4320    4.4320 C.3     1  UNL1        0.1807
      4 N          10.8170   -8.8830    4.6810 N.3     1  UNL1       -0.1248
      5 C          11.1470   -7.1280    2.9070 C.3     1  UNL1        0.2070
      6 O          10.0900   -7.5890    2.1910 O.3     1  UNL1       -0.2186
      7 C          11.3070   -5.5980    2.7260 C.3     1  UNL1        0.2132
      8 O          11.4610   -5.2730    1.3430 O.3     1  UNL1       -0.2176
      9 C          12.5400   -5.1040    3.5510 C.3     1  UNL1        0.1807
     10 O          12.3850   -5.4540    4.9660 O.3     1  UNL1       -0.3265
     11 C          12.7730   -3.5840    3.4560 C.3     1  UNL1        0.1817
     12 O          13.9160   -3.2200    4.1610 O.3     1  UNL1       -0.2204
     13 C          11.5980   -2.7500    4.0220 C.3     1  UNL1        0.0382
     14 C          16.5230   -9.6140    6.8340 C.3     1  UNL1        0.1231
     15 N          17.6630   -9.8550    7.7410 N.3     1  UNL1       -0.1302
     16 C          16.8610   -8.4500    5.8620 C.3     1  UNL1        0.0432
     17 C          15.6680   -8.1810    4.9090 C.3     1  UNL1        0.1231
     18 N          16.0330   -7.0720    3.9940 N.3     1  UNL1       -0.1302
     19 C          14.3920   -7.8420    5.7420 C.3     1  UNL1        0.1680
     20 C          14.0610   -9.0230    6.6950 C.3     1  UNL1        0.2088
     21 O          12.9190   -8.7070    7.4550 O.3     1  UNL1       -0.2178
     22 C          15.2500   -9.2640    7.6510 C.3     1  UNL1        0.1680
     23 O          14.9360  -10.3370    8.5260 O.3     1  UNL1       -0.3269
     24 C          15.1380  -10.1240    9.9020 C.3     1  UNL1        0.2683
     25 C          15.5680  -11.4610   10.5490 C.3     1  UNL1        0.2262
     26 O          16.7920  -11.8950    9.9720 O.3     1  UNL1       -0.2161
     27 C          14.4260  -12.5170   10.3280 C.3     1  UNL1        0.1384
     28 N          14.7550  -13.8620   10.9010 N.3     1  UNL1       -0.2126
     29 C          15.6780  -14.5990   10.0030 C.3     1  UNL1        0.1076
     30 C          13.1070  -11.9740   10.9710 C.3     1  UNL1        0.1710
     31 O          13.3140  -11.7910   12.3720 O.3     1  UNL1       -0.2215
     32 C          12.0090  -12.8810   10.8150 C.3     1  UNL1        0.0371
     33 C          12.7400  -10.5870   10.3820 C.3     1  UNL1        0.1765
     34 O          13.8830   -9.6520   10.5140 O.3     1  UNL1       -0.3259
@<TRIPOS>BOND
     1     1     2    1
     2     1     3    1
     3     1    10    1
     4     3     4    1
     5     3     5    1
     6     5     6    1
     7     5     7    1
     8     7     8    1
     9     7     9    1
    10     9    10    1
    11     9    11    1
    12    11    12    1
    13    11    13    1
    14    14    15    1
    15    14    16    1
    16    14    22    1
    17    16    17    1
    18    17    18    1
    19    17    19    1
    20    19     2    1
    21    19    20    1
    22    20    21    1
    23    20    22    1
    24    22    23    1
    25    24    23    1
    26    24    25    1
    27    24    34    1
    28    25    26    1
    29    25    27    1
    30    27    28    1
    31    27    30    1
    32    28    29    1
    33    30    31    1
    34    30    32    1
    35    30    33    1
    36    33    34    1
