REMARK  13 active torsions:
REMARK  status: ('A' for Active; 'I' for Inactive)
REMARK    1  A    between atoms: O_10  and  C_1 
REMARK    2  A    between atoms: N_9  and  C_2 
REMARK    3  A    between atoms: C_6  and  C_5 
REMARK    4  A    between atoms: N_7  and  C_6 
REMARK    5  A    between atoms: C_11  and  O_10 
REMARK    6  A    between atoms: N_31  and  C_12 
REMARK    7  A    between atoms: N_30  and  C_14 
REMARK    8  A    between atoms: O_18  and  C_15 
REMARK    9  A    between atoms: O_17  and  C_16 
REMARK   10  A    between atoms: C_19  and  O_18 
REMARK   11  A    between atoms: O_29  and  C_20 
REMARK   12  A    between atoms: N_27  and  C_21 
REMARK   13  A    between atoms: O_26  and  C_22 
ROOT
ATOM      1  C   UNL d   1       0.707   0.294  -1.570  0.00  0.00     0.189 C 
ATOM      2  C   UNL d   1       1.308  -0.794  -2.492  0.00  0.00     0.251 C 
ATOM      3  C   UNL d   1       2.809  -0.988  -2.281  0.00  0.00     0.076 C 
ATOM      4  C   UNL d   1       3.083  -1.482  -0.856  0.00  0.00     0.251 C 
ATOM      5  C   UNL d   1       2.350  -0.658   0.241  0.00  0.00     0.189 C 
ATOM      6  C   UNL d   1       1.556   0.543  -0.307  0.00  0.00     0.180 C 
ENDROOT
BRANCH   5   7
ATOM      7  O   UNL d   1       1.488  -1.572   0.947  0.00  0.00    -0.348 OA
BRANCH   7   8
ATOM      8  C   UNL d   1       1.270  -1.239   2.317  0.00  0.00     0.291 C 
ATOM      9  C   UNL d   1       2.312  -1.804   3.311  0.00  0.00     0.209 C 
ATOM     10  C   UNL d   1       2.017  -3.254   3.784  0.00  0.00     0.288 C 
ATOM     11  C   UNL d   1       0.989  -3.959   2.874  0.00  0.00     0.109 C 
ATOM     12  C   UNL d   1      -0.255  -3.082   2.625  0.00  0.00     0.210 C 
ATOM     13  C   UNL d   1       1.625  -4.458   1.561  0.00  0.00     0.050 C 
ATOM     14  O   UNL d   1      -0.017  -1.679   2.771  0.00  0.00    -0.356 OA
BRANCH   9  15
ATOM     15  O   UNL d   1       3.639  -1.707   2.819  0.00  0.00    -0.388 OA
ATOM     16  H   UNL d   1       3.743  -2.336   2.087  0.00  0.00     0.210 HD
ENDBRANCH   9  15
BRANCH  10  17
ATOM     17  N   UNL d   1       1.497  -3.224   5.168  0.00  0.00     0.089 N 
ATOM     18  C   UNL d   1       2.562  -3.245   6.164  0.00  0.00     0.307 C 
ATOM     19  H   UNL d   1       0.903  -2.410   5.310  0.00  0.00     0.316 HD
ENDBRANCH  10  17
BRANCH  11  20
ATOM     20  O   UNL d   1       0.525  -5.175   3.505  0.00  0.00    -0.386 OA
ATOM     21  H   UNL d   1       0.394  -4.984   4.450  0.00  0.00     0.210 HD
ENDBRANCH  11  20
ENDBRANCH   7   8
ENDBRANCH   5   7
BRANCH   4  22
ATOM     22  N   UNL d   1       4.532  -1.500  -0.648  0.00  0.00     0.085 N 
ATOM     23  H   UNL d   1       4.789  -2.316  -0.091  0.00  0.00     0.313 HD
ATOM     24  H   UNL d   1       4.835  -0.680  -0.125  0.00  0.00     0.313 HD
ENDBRANCH   4  22
BRANCH   6  25
ATOM     25  O   UNL d   1       2.536   1.547  -0.656  0.00  0.00    -0.390 OA
ATOM     26  H   UNL d   1       2.521   2.222   0.045  0.00  0.00     0.210 HD
ENDBRANCH   6  25
BRANCH   1  27
ATOM     27  O   UNL d   1      -0.655  -0.125  -1.401  0.00  0.00    -0.349 OA
BRANCH  27  28
ATOM     28  C   UNL d   1      -1.347   0.137  -0.185  0.00  0.00     0.299 C 
ATOM     29  C   UNL d   1      -2.795  -0.364  -0.365  0.00  0.00     0.276 C 
ATOM     30  C   UNL d   1      -3.560  -0.191   0.954  0.00  0.00     0.070 C 
ATOM     31  C   UNL d   1      -3.277   1.171   1.566  0.00  0.00     0.009 C 
ATOM     32  C   UNL d   1      -2.020   1.643   1.450  0.00  0.00     0.073 C 
ATOM     33  O   UNL d   1      -1.377   1.522   0.205  0.00  0.00    -0.321 OA
BRANCH  29  34
ATOM     34  N   UNL d   1      -3.486   0.371  -1.437  0.00  0.00     0.088 N 
ATOM     35  H   UNL d   1      -2.990   0.231  -2.314  0.00  0.00     0.313 HD
ATOM     36  H   UNL d   1      -3.445   1.370  -1.249  0.00  0.00     0.313 HD
ENDBRANCH  29  34
BRANCH  32  37
ATOM     37  C   UNL d   1      -1.476   2.712   2.360  0.00  0.00     0.330 C 
BRANCH  37  38
ATOM     38  N   UNL d   1      -0.943   3.884   1.674  0.00  0.00     0.084 N 
ATOM     39  H   UNL d   1      -0.705   3.652   0.711  0.00  0.00     0.313 HD
ATOM     40  H   UNL d   1      -0.070   4.162   2.115  0.00  0.00     0.313 HD
ENDBRANCH  37  38
ENDBRANCH  32  37
ENDBRANCH  27  28
ENDBRANCH   1  27
BRANCH   2  41
ATOM     41  N   UNL d   1       1.047  -0.448  -3.895  0.00  0.00     0.085 N 
ATOM     42  H   UNL d   1       1.897  -0.126  -4.352  0.00  0.00     0.313 HD
ATOM     43  H   UNL d   1       0.753  -1.282  -4.399  0.00  0.00     0.313 HD
ENDBRANCH   2  41
TORSDOF 13
