@<TRIPOS>MOLECULE
ligand.pdb
 51 53 0 0 0
SMALL
GASTEIGER

@<TRIPOS>ATOM
      1 N           8.9084    0.5368    1.1216 N.3     1  UNL1       -0.3184
      2 CA          8.2317    1.2250    0.0019 C.3     1  UNL1        0.1039
      3 HA          8.8079    1.0242   -0.9054 H       1  UNL1        0.0574
      4 C           8.2287    2.7386    0.2698 C.2     1  UNL1        0.3217
      5 O           7.3884    3.3261    0.9361 O.2     1  UNL1       -0.2493
      6 OXT         9.3240    3.3655   -0.2235 O.3     1  UNL1       -0.4795
      7 C           6.8099    0.6755   -0.1733 C.3     1  UNL1       -0.0199
      8 C           6.0573    1.2703   -1.3596 C.3     1  UNL1       -0.0230
      9 S           6.8585    1.0179   -2.9236 S.3     1  UNL1       -0.2533
     10 H           8.0969    1.5378   -2.9820 H       1  UNL1        0.0821
     11 C           5.8003    1.7900   -4.1126 C.3     1  UNL1       -0.0366
     12 C           6.8741   -0.7351   -3.2529 C.3     1  UNL1        0.0041
     13 C           7.4321   -1.0845   -4.6297 C.3     1  UNL1        0.0970
     14 H           6.8197   -0.6097   -5.4065 H       1  UNL1        0.0631
     15 O           8.7823   -0.6067   -4.7811 O.3     1  UNL1       -0.3472
     16 C           9.3277   -1.3718   -5.8768 C.3     1  UNL1        0.1666
     17 H           8.9629   -0.9476   -6.8215 H       1  UNL1        0.0866
     18 C           8.8065   -2.7977   -5.6605 C.3     1  UNL1        0.1285
     19 H           9.5035   -3.3933   -5.0593 H       1  UNL1        0.0665
     20 C           7.5143   -2.5968   -4.8614 C.3     1  UNL1        0.1121
     21 H           7.5911   -3.1400   -3.9129 H       1  UNL1        0.0647
     22 O           6.3621   -3.0783   -5.5453 O.3     1  UNL1       -0.3865
     23 O           8.5513   -3.5079   -6.8766 O.3     1  UNL1       -0.3847
     24 N          10.7698   -1.2218   -5.8999 N.ar    1  UNL1       -0.2855
     25 C          11.4714   -0.1385   -5.4341 C.ar    1  UNL1        0.1004
     26 N          12.7526   -0.2121   -5.7249 N.ar    1  UNL1       -0.2306
     27 C          12.8852   -1.3882   -6.4314 C.ar    1  UNL1        0.1473
     28 C          13.9908   -2.0036   -7.0424 C.ar    1  UNL1        0.1472
     29 N          15.2584   -1.4404   -7.0661 N.pl3   1  UNL1       -0.3413
     30 N          13.8109   -3.2047   -7.6362 N.ar    1  UNL1       -0.2188
     31 C          12.5678   -3.7315   -7.6555 C.ar    1  UNL1        0.1205
     32 N          11.4236   -3.2165   -7.1475 N.ar    1  UNL1       -0.2159
     33 C          11.6657   -2.0416   -6.5364 C.ar    1  UNL1        0.1674
     34 H1          8.3526    0.6788    1.9698 H       1  UNL1        0.1190
     35 H2          9.8049    0.9835    1.3162 H       1  UNL1        0.1190
     36 HXT         9.9269    2.7709   -0.7109 H       1  UNL1        0.2951
     37 H           6.2203    0.8704    0.7328 H       1  UNL1        0.0293
     38 H           6.8520   -0.4147   -0.2849 H       1  UNL1        0.0293
     39 H           5.9262    2.3507   -1.2444 H       1  UNL1        0.0360
     40 H           5.0617    0.8208   -1.4343 H       1  UNL1        0.0360
     41 H           6.2630    1.7124   -5.0967 H       1  UNL1        0.0324
     42 H           5.6951    2.8414   -3.8360 H       1  UNL1        0.0324
     43 H           4.8280    1.2957   -4.0984 H       1  UNL1        0.0324
     44 H           5.8496   -1.1011   -3.1369 H       1  UNL1        0.0385
     45 H           7.5017   -1.1709   -2.4690 H       1  UNL1        0.0385
     46 H           6.6966   -3.7175   -6.2099 H       1  UNL1        0.2100
     47 H           9.4262   -3.6246   -7.3081 H       1  UNL1        0.2101
     48 H          10.9936    0.6773   -4.9053 H       1  UNL1        0.1030
     49 H          15.4097   -0.7265   -6.3630 H       1  UNL1        0.1438
     50 H          15.9915   -2.1168   -7.2288 H       1  UNL1        0.1438
     51 H          12.4795   -4.6981   -8.1449 H       1  UNL1        0.1048
@<TRIPOS>BOND
     1     1    34    1
     2     1    35    1
     3     2     4    1
     4     2     7    1
     5     2     3    1
     6     2     1    1
     7     4     5    2
     8     4     6    1
     9     6    36    1
    10     7     8    1
    11     7    37    1
    12     7    38    1
    13     8    39    1
    14     8    40    1
    15     9    11    1
    16     9    12    1
    17     9    10    1
    18     9     8    1
    19    11    41    1
    20    11    42    1
    21    11    43    1
    22    12    13    1
    23    12    44    1
    24    12    45    1
    25    13    14    1
    26    13    15    1
    27    13    20    1
    28    15    16    1
    29    16    18    1
    30    16    24    1
    31    16    17    1
    32    18    19    1
    33    18    20    1
    34    18    23    1
    35    20    21    1
    36    20    22    1
    37    22    46    1
    38    23    47    1
    39    24    25   ar
    40    24    33   ar
    41    25    26   ar
    42    25    48    1
    43    26    27   ar
    44    27    28   ar
    45    27    33   ar
    46    28    29    1
    47    28    30   ar
    48    29    49    1
    49    29    50    1
    50    30    31   ar
    51    31    32   ar
    52    31    51    1
    53    32    33   ar
