REMARK  2 active torsions:
REMARK  status: ('A' for Active; 'I' for Inactive)
REMARK    1  A    between atoms: N_1  and  C_2 
REMARK    2  A    between atoms: C_4  and  O_5 
ROOT
ATOM      1  C   UNL d   1       2.329   0.074   0.124  0.00  0.00     0.009 A 
ATOM      2  C   UNL d   1       2.990  -1.156   0.144  0.00  0.00     0.060 A 
ATOM      3  C   UNL d   1       4.386  -1.228   0.046  0.00  0.00     0.081 A 
ATOM      4  C   UNL d   1       5.152  -0.038  -0.031  0.00  0.00     0.008 A 
ATOM      5  C   UNL d   1       6.560  -0.035  -0.147  0.00  0.00     0.015 A 
ATOM      6  C   UNL d   1       7.286   1.156  -0.208  0.00  0.00     0.001 A 
ATOM      7  C   UNL d   1       6.622   2.374  -0.145  0.00  0.00     0.001 A 
ATOM      8  C   UNL d   1       5.233   2.401  -0.028  0.00  0.00     0.012 A 
ATOM      9  C   UNL d   1       4.488   1.210   0.022  0.00  0.00    -0.021 A 
ATOM     10  C   UNL d   1       3.088   1.245   0.125  0.00  0.00     0.035 A 
ENDROOT
BRANCH   1  11
ATOM     11  N   UNL d   1       0.943   0.134   0.331  0.00  0.00    -0.303 NA
ATOM     12  H   UNL d   1       0.445  -0.685  -0.003  0.00  0.00     0.124 HD
ATOM     13  H   UNL d   1       0.520   0.997   0.001  0.00  0.00     0.124 HD
ENDBRANCH   1  11
BRANCH   3  14
ATOM     14  O   UNL d   1       5.096  -2.406   0.026  0.00  0.00    -0.355 OA
ATOM     15  C   UNL d   1       4.364  -3.620   0.123  0.00  0.00     0.210 C 
ENDBRANCH   3  14
TORSDOF 2
