@<TRIPOS>MOLECULE
2L8H_L8H_A_2
 24 25 0 0 0
SMALL
GASTEIGER

@<TRIPOS>ATOM
      1 N           0.9433    0.1344    0.3306 N.pl3   1  UNL1       -0.3579
      2 C           2.3292    0.0745    0.1242 C.ar    1  UNL1        0.0286
      3 C           2.9896   -1.1556    0.1438 C.ar    1  UNL1        0.0013
      4 C           4.3857   -1.2279    0.0463 C.ar    1  UNL1        0.1295
      5 O           5.0959   -2.4062    0.0260 O.3     1  UNL1       -0.4944
      6 C           4.3638   -3.6204    0.1230 C.3     1  UNL1        0.0788
      7 C           5.1522   -0.0381   -0.0310 C.ar    1  UNL1        0.0239
      8 C           6.5601   -0.0351   -0.1473 C.ar    1  UNL1       -0.0505
      9 C           7.2862    1.1560   -0.2078 C.ar    1  UNL1       -0.0611
     10 C           6.6221    2.3744   -0.1450 C.ar    1  UNL1       -0.0612
     11 C           5.2327    2.4008   -0.0275 C.ar    1  UNL1       -0.0539
     12 C           4.4877    1.2096    0.0221 C.ar    1  UNL1       -0.0127
     13 C           3.0882    1.2453    0.1252 C.ar    1  UNL1       -0.0331
     14 H           0.4447   -0.6847   -0.0031 H       1  UNL1        0.1423
     15 H           0.5204    0.9969    0.0006 H       1  UNL1        0.1423
     16 H           2.3888   -2.0533    0.2329 H       1  UNL1        0.0673
     17 H           5.0812   -4.4461    0.0903 H       1  UNL1        0.0660
     18 H           3.6825   -3.7396   -0.7258 H       1  UNL1        0.0660
     19 H           3.8281   -3.6842    1.0758 H       1  UNL1        0.0660
     20 H           7.1027   -0.9777   -0.1912 H       1  UNL1        0.0625
     21 H           8.3684    1.1266   -0.3010 H       1  UNL1        0.0618
     22 H           7.1827    3.3043   -0.1883 H       1  UNL1        0.0618
     23 H           4.7308    3.3648    0.0202 H       1  UNL1        0.0624
     24 H           2.5813    2.2048    0.1970 H       1  UNL1        0.0642
@<TRIPOS>BOND
     1     1     2    1
     2     1    14    1
     3     1    15    1
     4     2     3   ar
     5     2    13   ar
     6     3     4   ar
     7     3    16    1
     8     4     5    1
     9     4     7   ar
    10     5     6    1
    11     6    17    1
    12     6    18    1
    13     6    19    1
    14     7     8   ar
    15     7    12   ar
    16     8     9   ar
    17     8    20    1
    18     9    10   ar
    19     9    21    1
    20    10    11   ar
    21    10    22    1
    22    11    12   ar
    23    11    23    1
    24    12    13   ar
    25    13    24    1
