@<TRIPOS>MOLECULE
3Q3Z_C2E_V_1
 70 76 0 0 0
SMALL
GASTEIGER

@<TRIPOS>ATOM
      1 P          -3.0724    4.3696   -0.9064 P.3     1  UNL1        0.4754
      2 O          -1.8747    4.4280   -0.0029 O.2     1  UNL1       -0.2273
      3 O          -2.7678    4.6359   -2.4700 O.3     1  UNL1       -0.3025
      4 O          -4.2211    5.4550   -0.5813 O.3     1  UNL1       -0.2840
      5 C          -4.7723    5.5151    0.7314 C.3     1  UNL1        0.0879
      6 C          -6.1289    6.2040    0.6706 C.3     1  UNL1        0.1142
      7 H          -6.3110    6.7039    1.6277 H       1  UNL1        0.0647
      8 O          -6.0933    7.2464   -0.3214 O.3     1  UNL1       -0.3456
      9 C          -7.1977    7.0558   -1.2243 C.3     1  UNL1        0.1667
     10 H          -6.8460    6.4610   -2.0764 H       1  UNL1        0.0866
     11 C          -8.2256    6.2895   -0.4030 C.3     1  UNL1        0.1294
     12 H          -8.7687    6.9483    0.2875 H       1  UNL1        0.0666
     13 C          -7.3462    5.3226    0.3768 C.3     1  UNL1        0.1283
     14 H          -7.8189    4.9938    1.3064 H       1  UNL1        0.0656
     15 O          -6.9859    4.1856   -0.4001 O.3     1  UNL1       -0.2779
     16 P          -7.9035    2.8477   -0.3546 P.3     1  UNL1        0.4754
     17 O          -9.1654    2.8883   -1.1672 O.2     1  UNL1       -0.2273
     18 O          -8.1447    2.5671    1.2209 O.3     1  UNL1       -0.3025
     19 O          -6.8968    1.6556   -0.7617 O.3     1  UNL1       -0.2840
     20 C          -6.1439    1.7023   -1.9582 C.3     1  UNL1        0.0879
     21 C          -4.8124    0.9721   -1.7649 C.3     1  UNL1        0.1142
     22 H          -4.6763    0.2611   -2.5881 H       1  UNL1        0.0647
     23 O          -4.7778    0.1929   -0.5411 O.3     1  UNL1       -0.3456
     24 C          -3.4853    0.3728    0.1108 C.3     1  UNL1        0.1667
     25 H          -3.1111   -0.6034    0.4304 H       1  UNL1        0.0866
     26 C          -2.6212    0.9665   -1.0096 C.3     1  UNL1        0.1294
     27 H          -2.3429    0.1544   -1.6949 H       1  UNL1        0.0666
     28 C          -3.5951    1.8841   -1.7063 C.3     1  UNL1        0.1283
     29 H          -3.2582    2.2014   -2.6977 H       1  UNL1        0.0656
     30 O          -3.9082    2.9950   -0.8842 O.3     1  UNL1       -0.2779
     31 O          -1.4432    1.6304   -0.6335 O.3     1  UNL1       -0.3846
     32 N          -3.6757    1.1578    1.3290 N.ar    1  UNL1       -0.2854
     33 C          -4.8859    1.4967    1.8972 C.ar    1  UNL1        0.1005
     34 N          -4.7582    2.3850    2.8613 N.ar    1  UNL1       -0.2286
     35 C          -3.4189    2.4093    3.1034 C.ar    1  UNL1        0.1721
     36 C          -2.7175    3.3966    3.8865 C.ar    1  UNL1        0.2803
     37 O          -3.2641    4.1139    4.7158 O.2     1  UNL1       -0.2654
     38 N          -1.3416    3.3513    3.6380 N.ar    1  UNL1       -0.2934
     39 H          -0.7498    3.9746    4.1796 H       1  UNL1        0.1716
     40 C          -0.7049    2.3841    2.8308 C.ar    1  UNL1        0.1950
     41 N           0.6744    2.3857    2.8828 N.pl3   1  UNL1       -0.3289
     42 N          -1.3758    1.5713    2.0457 N.ar    1  UNL1       -0.1963
     43 C          -2.7194    1.7415    2.1202 C.ar    1  UNL1        0.1712
     44 O          -9.1579    5.6310   -1.2361 O.3     1  UNL1       -0.3846
     45 N          -7.5599    8.3500   -1.7632 N.ar    1  UNL1       -0.2854
     46 C          -6.6451    9.2221   -2.3228 C.ar    1  UNL1        0.1005
     47 N          -7.2346   10.2062   -2.9716 N.ar    1  UNL1       -0.2286
     48 C          -8.5401   10.0955   -2.5896 C.ar    1  UNL1        0.1721
     49 C          -9.6368   10.8557   -3.1384 C.ar    1  UNL1        0.2803
     50 O          -9.5164   12.0082   -3.5350 O.2     1  UNL1       -0.2654
     51 N         -10.8483   10.1640   -3.0215 N.ar    1  UNL1       -0.2934
     52 H         -11.6892   10.6475   -3.3231 H       1  UNL1        0.1716
     53 C         -11.0104    8.9452   -2.3267 C.ar    1  UNL1        0.1950
     54 N         -12.3093    8.5074   -2.1666 N.pl3   1  UNL1       -0.3289
     55 N          -9.9913    8.2403   -1.8943 N.ar    1  UNL1       -0.1963
     56 C          -8.7938    8.8138   -2.1441 C.ar    1  UNL1        0.1712
     57 H          -2.0332    5.2363   -2.7149 H       1  UNL1        0.2220
     58 H          -4.8467    4.5124    1.1579 H       1  UNL1        0.0592
     59 H          -4.0823    6.1049    1.3426 H       1  UNL1        0.0592
     60 H          -8.2330    1.6406    1.5313 H       1  UNL1        0.2220
     61 H          -6.7268    1.2276   -2.7554 H       1  UNL1        0.0592
     62 H          -5.9852    2.7381   -2.2755 H       1  UNL1        0.0592
     63 H          -0.8304    0.9635   -0.2826 H       1  UNL1        0.2101
     64 H          -5.8304    1.1462    1.5120 H       1  UNL1        0.1030
     65 H           1.0529    2.1036    3.7855 H       1  UNL1        0.1451
     66 H           1.1187    1.8248    2.1573 H       1  UNL1        0.1451
     67 H          -8.6544    5.0989   -1.8765 H       1  UNL1        0.2101
     68 H          -5.5827    9.0197   -2.3204 H       1  UNL1        0.1030
     69 H         -12.6320    8.5619   -1.2013 H       1  UNL1        0.1451
     70 H         -12.4611    7.5531   -2.4927 H       1  UNL1        0.1451
@<TRIPOS>BOND
     1     1     4    1
     2     1    30    1
     3     1     3    1
     4     1     2    2
     5     3    57    1
     6     4     5    1
     7     5     6    1
     8     5    58    1
     9     5    59    1
    10     6     8    1
    11     6    13    1
    12     6     7    1
    13     8     9    1
    14     9    11    1
    15     9    10    1
    16     9    45    1
    17    11    13    1
    18    11    12    1
    19    11    44    1
    20    13    15    1
    21    13    14    1
    22    16    15    1
    23    16    19    1
    24    16    17    2
    25    16    18    1
    26    18    60    1
    27    19    20    1
    28    20    21    1
    29    20    61    1
    30    20    62    1
    31    21    23    1
    32    21    28    1
    33    21    22    1
    34    23    24    1
    35    24    26    1
    36    24    25    1
    37    24    32    1
    38    26    28    1
    39    26    31    1
    40    26    27    1
    41    28    30    1
    42    28    29    1
    43    31    63    1
    44    32    33   ar
    45    32    43   ar
    46    33    34   ar
    47    33    64    1
    48    34    35   ar
    49    35    36   ar
    50    35    43   ar
    51    36    37    2
    52    36    38   ar
    53    38    39    1
    54    38    40   ar
    55    40    41    1
    56    40    42   ar
    57    41    65    1
    58    41    66    1
    59    42    43   ar
    60    44    67    1
    61    45    46   ar
    62    45    56   ar
    63    46    47   ar
    64    46    68    1
    65    47    48   ar
    66    48    49   ar
    67    48    56   ar
    68    49    50    2
    69    49    51   ar
    70    51    52    1
    71    51    53   ar
    72    53    54    1
    73    53    55   ar
    74    54    69    1
    75    54    70    1
    76    55    56   ar
