REMARK  10 active torsions:
REMARK  status: ('A' for Active; 'I' for Inactive)
REMARK       I    between atoms: C_2  and  N_3 
REMARK    1  A    between atoms: C_2  and  C_4 
REMARK    2  A    between atoms: C_5  and  N_6 
REMARK    3  A    between atoms: N_7  and  C_10 
REMARK    4  A    between atoms: C_11  and  O_22 
REMARK    5  A    between atoms: C_12  and  O_13 
REMARK    6  A    between atoms: C_14  and  C_16 
REMARK    7  A    between atoms: C_16  and  O_17 
REMARK    8  A    between atoms: O_17  and  P_18 
REMARK    9  A    between atoms: P_18  and  O_20 
REMARK   10  A    between atoms: P_18  and  O_21 
ROOT
ATOM      1  C   UNL d   1       4.994  -1.889   3.466  0.00  0.00     0.262 C 
ATOM      2  C   UNL d   1       4.839  -0.900   4.625  0.00  0.00     0.198 C 
ATOM      3  C   UNL d   1       5.504  -1.664   5.756  0.00  0.00     0.182 C 
ATOM      4  C   UNL d   1       5.081  -3.114   5.471  0.00  0.00     0.180 C 
ATOM      5  O   UNL d   1       4.788  -3.197   4.052  0.00  0.00    -0.353 OA
ENDROOT
BRANCH   1   6
ATOM      6  N   UNL d   1       4.090  -1.724   2.337  0.00  0.00    -0.295 N 
ATOM      7  C   UNL d   1       4.164  -2.391   1.131  0.00  0.00     0.139 A 
ATOM      8  C   UNL d   1       3.131  -1.873   0.363  0.00  0.00     0.169 A 
ATOM      9  N   UNL d   1       2.472  -0.872   1.062  0.00  0.00    -0.234 NA
ATOM     10  C   UNL d   1       3.091  -0.793   2.219  0.00  0.00     0.214 A 
BRANCH   7  11
ATOM     11  N   UNL d   1       5.111  -3.315   0.860  0.00  0.00    -0.383 N 
ATOM     12  H   UNL d   1       5.009  -3.877   0.010  0.00  0.00     0.157 HD
ATOM     13  H   UNL d   1       5.641  -3.789   1.587  0.00  0.00     0.157 HD
ENDBRANCH   7  11
BRANCH   8  14
ATOM     14  C   UNL d   1       2.757  -2.257  -0.999  0.00  0.00     0.271 C 
ATOM     15  O   UNL d   1       3.273  -3.174  -1.635  0.00  0.00    -0.266 OA
ATOM     16  N   UNL d   1       1.760  -1.482  -1.522  0.00  0.00    -0.365 N 
ATOM     17  H   UNL d   1       1.453  -1.636  -2.468  0.00  0.00     0.159 HD
ATOM     18  H   UNL d   1       1.395  -0.715  -0.969  0.00  0.00     0.159 HD
ENDBRANCH   8  14
ENDBRANCH   1   6
BRANCH   2  19
ATOM     19  O   UNL d   1       5.454   0.368   4.419  0.00  0.00    -0.388 OA
ATOM     20  H   UNL d   1       6.397   0.201   4.230  0.00  0.00     0.210 HD
ENDBRANCH   2  19
BRANCH   3  21
ATOM     21  O   UNL d   1       6.921  -1.492   5.671  0.00  0.00    -0.390 OA
ATOM     22  H   UNL d   1       7.124  -0.675   6.168  0.00  0.00     0.210 HD
ENDBRANCH   3  21
BRANCH   4  23
ATOM     23  C   UNL d   1       3.817  -3.395   6.290  0.00  0.00     0.215 C 
BRANCH  23  24
ATOM     24  O   UNL d   1       3.312  -4.721   6.230  0.00  0.00    -0.294 OA
BRANCH  24  25
ATOM     25  P   UNL d   1       1.841  -4.826   6.874  0.00  0.00     0.390 P 
ATOM     26  O   UNL d   1       1.570  -3.912   8.020  0.00  0.00    -0.632 OA
BRANCH  25  27
ATOM     27  O   UNL d   1       0.856  -4.654   5.635  0.00  0.00    -0.307 OA
ATOM     28  H   UNL d   1       1.028  -5.327   4.950  0.00  0.00     0.222 HD
ENDBRANCH  25  27
BRANCH  25  29
ATOM     29  O   UNL d   1       1.604  -6.353   7.259  0.00  0.00    -0.307 OA
ATOM     30  H   UNL d   1       0.971  -6.393   8.002  0.00  0.00     0.222 HD
ENDBRANCH  25  29
ENDBRANCH  24  25
ENDBRANCH  23  24
ENDBRANCH   4  23
TORSDOF 10
