4ZNP_AMZ_A_101
 OpenBabel03221817323D

 37 38  0  0  1  0  0  0  0  0999 V2000
    3.2729   -3.1744   -1.6346 O   0  0  0  0  0  0  0  0  0  0  0  0
    2.7570   -2.2569   -0.9985 C   0  0  0  0  0  0  0  0  0  0  0  0
    1.7597   -1.4823   -1.5216 N   0  0  0  0  0  0  0  0  0  0  0  0
    3.1313   -1.8730    0.3628 C   0  0  0  0  0  0  0  0  0  0  0  0
    4.1638   -2.3909    1.1309 C   0  0  0  0  0  0  0  0  0  0  0  0
    5.1112   -3.3153    0.8599 N   0  0  0  0  0  0  0  0  0  0  0  0
    4.0905   -1.7240    2.3370 N   0  0  0  0  0  0  0  0  0  0  0  0
    3.0915   -0.7933    2.2193 C   0  0  0  0  0  0  0  0  0  0  0  0
    2.4720   -0.8715    1.0625 N   0  0  0  0  0  0  0  0  0  0  0  0
    4.9936   -1.8895    3.4658 C   0  0  1  0  0  0  0  0  0  0  0  0
    6.0113   -1.8400    3.0559 H   0  0  0  0  0  0  0  0  0  0  0  0
    4.8394   -0.9005    4.6255 C   0  0  1  0  0  0  0  0  0  0  0  0
    3.7852   -0.7408    4.8799 H   0  0  0  0  0  0  0  0  0  0  0  0
    5.5040   -1.6639    5.7565 C   0  0  2  0  0  0  0  0  0  0  0  0
    5.1946   -1.3108    6.7464 H   0  0  0  0  0  0  0  0  0  0  0  0
    6.9209   -1.4923    5.6708 O   0  0  0  0  0  0  0  0  0  0  0  0
    5.0806   -3.1141    5.4708 C   0  0  2  0  0  0  0  0  0  0  0  0
    5.8707   -3.8411    5.6884 H   0  0  0  0  0  0  0  0  0  0  0  0
    4.7882   -3.1972    4.0523 O   0  0  0  0  0  0  0  0  0  0  0  0
    3.8169   -3.3949    6.2900 C   0  0  0  0  0  0  0  0  0  0  0  0
    3.3121   -4.7209    6.2304 O   0  0  0  0  0  0  0  0  0  0  0  0
    1.8407   -4.8261    6.8744 P   0  0  0  0  0  0  0  0  0  0  0  0
    1.5699   -3.9116    8.0197 O   0  0  0  0  0  0  0  0  0  0  0  0
    0.8563   -4.6543    5.6347 O   0  0  0  0  0  0  0  0  0  0  0  0
    1.6043   -6.3526    7.2590 O   0  0  0  0  0  0  0  0  0  0  0  0
    5.4536    0.3676    4.4191 O   0  0  0  0  0  0  0  0  0  0  0  0
    1.4529   -1.6357   -2.4684 H   0  0  0  0  0  0  0  0  0  0  0  0
    1.3950   -0.7153   -0.9689 H   0  0  0  0  0  0  0  0  0  0  0  0
    5.0089   -3.8765    0.0096 H   0  0  0  0  0  0  0  0  0  0  0  0
    5.6409   -3.7894    1.5875 H   0  0  0  0  0  0  0  0  0  0  0  0
    2.8490   -0.0729    2.9886 H   0  0  0  0  0  0  0  0  0  0  0  0
    7.1241   -0.6751    6.1683 H   0  0  0  0  0  0  0  0  0  0  0  0
    4.0357   -3.1928    7.3443 H   0  0  0  0  0  0  0  0  0  0  0  0
    3.0202   -2.7230    5.9541 H   0  0  0  0  0  0  0  0  0  0  0  0
    1.0277   -5.3267    4.9496 H   0  0  0  0  0  0  0  0  0  0  0  0
    0.9709   -6.3933    8.0025 H   0  0  0  0  0  0  0  0  0  0  0  0
    6.3967    0.2008    4.2297 H   0  0  0  0  0  0  0  0  0  0  0  0
  1  2  2  0  0  0  0
  2  3  1  0  0  0  0
  2  4  1  0  0  0  0
  3 27  1  0  0  0  0
  3 28  1  0  0  0  0
  4  5  2  0  0  0  0
  4  9  1  0  0  0  0
  5  6  1  0  0  0  0
  5  7  1  0  0  0  0
  6 29  1  0  0  0  0
  6 30  1  0  0  0  0
  7  8  1  0  0  0  0
  7 10  1  0  0  0  0
  8  9  2  0  0  0  0
  8 31  1  0  0  0  0
 10 11  1  0  0  0  0
 10 12  1  1  0  0  0
 10 19  1  0  0  0  0
 12 14  1  1  0  0  0
 12 26  1  0  0  0  0
 12 13  1  0  0  0  0
 14 15  1  0  0  0  0
 14 16  1  0  0  0  0
 14 17  1  6  0  0  0
 16 32  1  0  0  0  0
 17 19  1  0  0  0  0
 17 20  1  0  0  0  0
 17 18  1  1  0  0  0
 20 21  1  0  0  0  0
 20 33  1  0  0  0  0
 20 34  1  0  0  0  0
 21 22  1  0  0  0  0
 22 23  2  0  0  0  0
 22 24  1  0  0  0  0
 22 25  1  0  0  0  0
 24 35  1  0  0  0  0
 25 36  1  0  0  0  0
 26 37  1  0  0  0  0
M  END
$$$$
