@<TRIPOS>MOLECULE
4ZNP_AMZ_A_101
 37 38 0 0 0
SMALL
GASTEIGER

@<TRIPOS>ATOM
      1 O           3.2729   -3.1744   -1.6346 O.2     1  UNL1       -0.2686
      2 C           2.7570   -2.2569   -0.9985 C.2     1  UNL1        0.2632
      3 N           1.7597   -1.4823   -1.5216 N.am    1  UNL1       -0.3240
      4 C           3.1313   -1.8730    0.3628 C.ar    1  UNL1        0.1644
      5 C           4.1638   -2.3909    1.1309 C.ar    1  UNL1        0.1306
      6 N           5.1112   -3.3153    0.8599 N.pl3   1  UNL1       -0.3425
      7 N           4.0905   -1.7240    2.3370 N.ar    1  UNL1       -0.2892
      8 C           3.0915   -0.7933    2.2193 C.ar    1  UNL1        0.1003
      9 N           2.4720   -0.8715    1.0625 N.ar    1  UNL1       -0.2291
     10 C           4.9936   -1.8895    3.4658 C.3     1  UNL1        0.1664
     11 H           6.0113   -1.8400    3.0559 H       1  UNL1        0.0866
     12 C           4.8394   -0.9005    4.6255 C.3     1  UNL1        0.1285
     13 H           3.7852   -0.7408    4.8799 H       1  UNL1        0.0665
     14 C           5.5040   -1.6639    5.7565 C.3     1  UNL1        0.1135
     15 H           5.1946   -1.3108    6.7464 H       1  UNL1        0.0647
     16 O           6.9209   -1.4923    5.6708 O.3     1  UNL1       -0.3864
     17 C           5.0806   -3.1141    5.4708 C.3     1  UNL1        0.1134
     18 H           5.8707   -3.8411    5.6884 H       1  UNL1        0.0647
     19 O           4.7882   -3.1972    4.0523 O.3     1  UNL1       -0.3456
     20 C           3.8169   -3.3949    6.2900 C.3     1  UNL1        0.0878
     21 O           3.3121   -4.7209    6.2304 O.3     1  UNL1       -0.2841
     22 P           1.8407   -4.8261    6.8744 P.3     1  UNL1        0.4724
     23 O           1.5699   -3.9116    8.0197 O.2     1  UNL1       -0.2275
     24 O           0.8563   -4.6543    5.6347 O.3     1  UNL1       -0.3026
     25 O           1.6043   -6.3526    7.2590 O.3     1  UNL1       -0.3026
     26 O           5.4536    0.3676    4.4191 O.3     1  UNL1       -0.3847
     27 H           1.4529   -1.6357   -2.4684 H       1  UNL1        0.1453
     28 H           1.3950   -0.7153   -0.9689 H       1  UNL1        0.1453
     29 H           5.0089   -3.8765    0.0096 H       1  UNL1        0.1437
     30 H           5.6409   -3.7894    1.5875 H       1  UNL1        0.1437
     31 H           2.8490   -0.0729    2.9886 H       1  UNL1        0.1030
     32 H           7.1241   -0.6751    6.1683 H       1  UNL1        0.2100
     33 H           4.0357   -3.1928    7.3443 H       1  UNL1        0.0592
     34 H           3.0202   -2.7230    5.9541 H       1  UNL1        0.0592
     35 H           1.0277   -5.3267    4.9496 H       1  UNL1        0.2220
     36 H           0.9709   -6.3933    8.0025 H       1  UNL1        0.2220
     37 H           6.3967    0.2008    4.2297 H       1  UNL1        0.2101
@<TRIPOS>BOND
     1     1     2    2
     2     2     3   am
     3     2     4    1
     4     3    27    1
     5     3    28    1
     6     4     5   ar
     7     4     9   ar
     8     5     6    1
     9     5     7   ar
    10     6    29    1
    11     6    30    1
    12     7     8   ar
    13     7    10    1
    14     8     9   ar
    15     8    31    1
    16    10    11    1
    17    10    12    1
    18    10    19    1
    19    12    14    1
    20    12    26    1
    21    12    13    1
    22    14    15    1
    23    14    16    1
    24    14    17    1
    25    16    32    1
    26    17    19    1
    27    17    20    1
    28    17    18    1
    29    20    21    1
    30    20    33    1
    31    20    34    1
    32    21    22    1
    33    22    23    2
    34    22    24    1
    35    22    25    1
    36    24    35    1
    37    25    36    1
    38    26    37    1
