REMARK  12 active torsions:
REMARK  status: ('A' for Active; 'I' for Inactive)
REMARK    1  A    between atoms: N_6  and  C_5 
REMARK    2  A    between atoms: C_9  and  C_7 
REMARK    3  A    between atoms: N_10  and  C_9 
REMARK    4  A    between atoms: C_16  and  C_13 
REMARK    5  A    between atoms: C_17  and  C_16 
REMARK    6  A    between atoms: O_18  and  C_17 
REMARK    7  A    between atoms: P_19  and  O_18 
REMARK    8  A    between atoms: O_21  and  P_19 
REMARK    9  A    between atoms: O_22  and  P_19 
REMARK   10  A    between atoms: P_23  and  O_22 
REMARK   11  A    between atoms: O_25  and  P_23 
REMARK   12  A    between atoms: O_26  and  P_23 
ROOT
ATOM      1  N   UNL d   1      -3.059  -1.884  -0.431  0.00  0.00    -0.349 N 
ATOM      2  C   UNL d   1      -3.933  -2.878  -0.473  0.00  0.00     0.141 A 
ATOM      3  S   UNL d   1      -3.542  -4.029  -1.665  0.00  0.00    -0.087 SA
ATOM      4  C   UNL d   1      -2.145  -3.148  -2.131  0.00  0.00     0.008 A 
ATOM      5  C   UNL d   1      -2.010  -2.015  -1.344  0.00  0.00     0.021 A 
ATOM      6  C   UNL d   1      -1.028  -0.925  -1.573  0.00  0.00     0.069 C 
ENDROOT
BRANCH   4   7
ATOM      7  C   UNL d   1      -1.103  -3.802  -2.994  0.00  0.00     0.075 C 
BRANCH   7   8
ATOM      8  C   UNL d   1      -0.007  -4.465  -2.152  0.00  0.00     0.185 C 
BRANCH   8   9
ATOM      9  O   UNL d   1       1.164  -3.658  -2.192  0.00  0.00    -0.296 OA
BRANCH   9  10
ATOM     10  P   UNL d   1       2.482  -4.187  -2.965  0.00  0.00     0.401 P 
ATOM     11  O   UNL d   1       3.292  -5.211  -2.224  0.00  0.00    -0.631 OA
BRANCH  10  12
ATOM     12  O   UNL d   1       3.269  -2.814  -3.301  0.00  0.00    -0.307 OA
ATOM     13  H   UNL d   1       4.014  -2.538  -2.726  0.00  0.00     0.222 HD
ENDBRANCH  10  12
BRANCH  10  14
ATOM     14  O   UNL d   1       1.937  -4.655  -4.412  0.00  0.00    -0.195 OA
BRANCH  14  15
ATOM     15  P   UNL d   1       2.720  -5.014  -5.778  0.00  0.00     0.399 P 
ATOM     16  O   UNL d   1       3.840  -4.084  -6.139  0.00  0.00    -0.631 OA
BRANCH  15  17
ATOM     17  O   UNL d   1       3.153  -6.558  -5.568  0.00  0.00    -0.307 OA
ATOM     18  H   UNL d   1       2.632  -7.122  -4.957  0.00  0.00     0.222 HD
ENDBRANCH  15  17
BRANCH  15  19
ATOM     19  O   UNL d   1       1.531  -5.108  -6.869  0.00  0.00    -0.307 OA
ATOM     20  H   UNL d   1       1.444  -4.394  -7.537  0.00  0.00     0.222 HD
ENDBRANCH  15  19
ENDBRANCH  14  15
ENDBRANCH  10  14
ENDBRANCH   9  10
ENDBRANCH   8   9
ENDBRANCH   7   8
ENDBRANCH   4   7
BRANCH   1  21
ATOM     21  C   UNL d   1      -3.188  -0.897   0.660  0.00  0.00     0.172 C 
BRANCH  21  22
ATOM     22  C   UNL d   1      -2.955   0.523   0.247  0.00  0.00     0.018 C 
ATOM     23  C   UNL d   1      -2.095   1.387   0.929  0.00  0.00     0.112 C 
ATOM     24  N   UNL d   1      -1.804   2.619   0.452  0.00  0.00    -0.222 NA
ATOM     25  C   UNL d   1      -2.320   2.949  -0.751  0.00  0.00     0.123 C 
ATOM     26  N   UNL d   1      -3.274   2.256  -1.401  0.00  0.00    -0.245 NA
ATOM     27  C   UNL d   1      -1.821   4.208  -1.379  0.00  0.00     0.093 C 
ATOM     28  C   UNL d   1      -3.608   1.075  -0.846  0.00  0.00     0.131 C 
BRANCH  23  29
ATOM     29  N   UNL d   1      -1.499   0.981   2.144  0.00  0.00    -0.286 NA
ATOM     30  H   UNL d   1      -0.800   0.260   1.984  0.00  0.00     0.125 HD
ATOM     31  H   UNL d   1      -1.062   1.778   2.602  0.00  0.00     0.125 HD
ENDBRANCH  23  29
ENDBRANCH  21  22
ENDBRANCH   1  21
TORSDOF 12
