@<TRIPOS>MOLECULE
2GDI_TPP_X_100
 45 46 0 0 0
SMALL
GASTEIGER

@<TRIPOS>ATOM
      1 N          -3.2744    2.2560   -1.4014 N.ar    1  UNL1       -0.2400
      2 C          -2.3204    2.9489   -0.7509 C.ar    1  UNL1        0.1280
      3 C          -1.8206    4.2080   -1.3794 C.3     1  UNL1       -0.0046
      4 N          -1.8036    2.6193    0.4516 N.ar    1  UNL1       -0.2176
      5 C          -2.0946    1.3868    0.9292 C.ar    1  UNL1        0.1289
      6 N          -1.4993    0.9811    2.1440 N.pl3   1  UNL1       -0.3427
      7 C          -2.9550    0.5235    0.2474 C.ar    1  UNL1        0.0747
      8 C          -3.6077    1.0752   -0.8458 C.ar    1  UNL1        0.0421
      9 C          -3.1882   -0.8966    0.6604 C.3     1  UNL1        0.1811
     10 N          -3.0586   -1.8839   -0.4311 N.ar    1  UNL1       -0.1903
     11 C          -3.9325   -2.8778   -0.4728 C.ar    1  UNL1        0.2109
     12 S          -3.5420   -4.0289   -1.6652 S.2     1  UNL1       -0.0273
     13 C          -2.1452   -3.1484   -2.1310 C.ar    1  UNL1        0.0636
     14 C          -2.0105   -2.0153   -1.3440 C.ar    1  UNL1        0.1915
     15 C          -1.0276   -0.9247   -1.5732 C.3     1  UNL1        0.0216
     16 C          -1.1028   -3.8023   -2.9937 C.3     1  UNL1        0.0088
     17 C          -0.0074   -4.4645   -2.1525 C.3     1  UNL1        0.0637
     18 O           1.1643   -3.6584   -2.1918 O.3     1  UNL1       -0.2860
     19 P           2.4825   -4.1871   -2.9649 P.3     1  UNL1        0.4834
     20 O           3.2923   -5.2106   -2.2245 O.2     1  UNL1       -0.2269
     21 O           3.2689   -2.8138   -3.3007 O.3     1  UNL1       -0.3022
     22 O           1.9368   -4.6550   -4.4124 O.3     1  UNL1       -0.1862
     23 P           2.7204   -5.0144   -5.7780 P.3     1  UNL1        0.4808
     24 O           3.8402   -4.0839   -6.1392 O.2     1  UNL1       -0.2271
     25 O           3.1527   -6.5579   -5.5680 O.3     1  UNL1       -0.3023
     26 O           1.5312   -5.1078   -6.8692 O.3     1  UNL1       -0.3023
     27 H          -2.3473    4.4192   -2.3146 H       1  UNL1        0.0308
     28 H          -0.7530    4.1080   -1.6005 H       1  UNL1        0.0308
     29 H          -1.9625    5.0510   -0.6977 H       1  UNL1        0.0308
     30 H          -0.7997    0.2598    1.9835 H       1  UNL1        0.1437
     31 H          -1.0619    1.7778    2.6023 H       1  UNL1        0.1437
     32 H          -4.3569    0.5117   -1.3942 H       1  UNL1        0.0836
     33 H          -4.2033   -0.9479    1.0783 H       1  UNL1        0.1087
     34 H          -2.5066   -1.2227    1.4541 H       1  UNL1        0.1087
     35 H          -4.7731   -2.9772    0.2005 H       1  UNL1        0.1462
     36 H          -0.3170   -1.1905   -2.3627 H       1  UNL1        0.0336
     37 H          -1.5087   -0.0144   -1.9341 H       1  UNL1        0.0336
     38 H          -0.4452   -0.7152   -0.6737 H       1  UNL1        0.0336
     39 H          -0.6712   -3.0515   -3.6670 H       1  UNL1        0.0343
     40 H          -1.5633   -4.5523   -3.6474 H       1  UNL1        0.0343
     41 H           0.2099   -5.4694   -2.5304 H       1  UNL1        0.0569
     42 H          -0.2931   -4.5757   -1.1005 H       1  UNL1        0.0569
     43 H           4.0137   -2.5382   -2.7257 H       1  UNL1        0.2220
     44 H           2.6320   -7.1217   -4.9575 H       1  UNL1        0.2220
     45 H           1.4442   -4.3944   -7.5368 H       1  UNL1        0.2220
@<TRIPOS>BOND
     1     2     1   ar
     2     3     2    1
     3     4     2   ar
     4     5     4   ar
     5     6     5    1
     6     7     5   ar
     7     8     7   ar
     8     8     1   ar
     9     9     7    1
    10    10     9    1
    11    11    10   ar
    12    12    11   ar
    13    13    12   ar
    14    14    13   ar
    15    14    10   ar
    16    15    14    1
    17    16    13    1
    18    17    16    1
    19    18    17    1
    20    19    18    1
    21    20    19    2
    22    21    19    1
    23    22    19    1
    24    23    22    1
    25    24    23    2
    26    25    23    1
    27    26    23    1
    28     3    27    1
    29     3    28    1
    30     3    29    1
    31     6    30    1
    32     6    31    1
    33     8    32    1
    34     9    33    1
    35     9    34    1
    36    11    35    1
    37    15    36    1
    38    15    37    1
    39    15    38    1
    40    16    39    1
    41    16    40    1
    42    17    41    1
    43    17    42    1
    44    21    43    1
    45    25    44    1
    46    26    45    1
