2FCX_XXX_A_101
 OpenBabel03221817223D

 48 49  0  0  1  0  0  0  0  0999 V2000
    4.1113    0.3319    1.2720 O   0  0  0  0  0  0  0  0  0  0  0  0
    3.1268   -0.0070    0.2736 C   0  0  2  0  0  0  0  0  0  0  0  0
    2.1632   -0.0134    0.7972 H   0  0  0  0  0  0  0  0  0  0  0  0
    3.5071   -1.4204   -0.1760 C   0  0  1  0  0  0  0  0  0  0  0  0
    4.5491   -1.4227   -0.5199 H   0  0  0  0  0  0  0  0  0  0  0  0
    3.4597   -2.3015    0.9565 O   0  0  0  0  0  0  0  0  0  0  0  0
    2.5795   -1.9430   -1.2808 C   0  0  2  0  0  0  0  0  0  0  0  0
    1.5600   -2.0328   -0.8841 H   0  0  0  0  0  0  0  0  0  0  0  0
    2.9911   -3.2944   -1.7004 N   0  0  0  0  0  0  0  0  0  0  0  0
    2.5817   -0.9911   -2.4748 C   0  0  0  0  0  0  0  0  0  0  0  0
    2.1805    0.4330   -2.0575 C   0  0  2  0  0  0  0  0  0  0  0  0
    1.1416    0.4237   -1.7026 H   0  0  0  0  0  0  0  0  0  0  0  0
    2.2066    1.3049   -3.2498 N   0  0  0  0  0  0  0  0  0  0  0  0
    3.0791    0.9926   -0.9103 C   0  0  1  0  0  0  0  0  0  0  0  0
    4.0930    1.1428   -1.3028 H   0  0  0  0  0  0  0  0  0  0  0  0
    2.5428    2.2815   -0.5300 O   0  0  0  0  0  0  0  0  0  0  0  0
    3.2971    2.9937    0.4557 C   0  0  1  0  0  0  0  0  0  0  0  0
    3.2816    2.4302    1.3904 H   0  0  0  0  0  0  0  0  0  0  0  0
    4.6643    3.1589    0.0572 O   0  0  0  0  0  0  0  0  0  0  0  0
    4.8128    4.0202   -1.0891 C   0  0  2  0  0  0  0  0  0  0  0  0
    4.2610    3.5977   -1.9400 H   0  0  0  0  0  0  0  0  0  0  0  0
    6.3038    4.0719   -1.4779 C   0  0  0  0  0  0  0  0  0  0  0  0
    6.7983    2.7454   -1.8711 N   0  0  0  0  0  0  0  0  0  0  0  0
    4.2776    5.4267   -0.7757 C   0  0  1  0  0  0  0  0  0  0  0  0
    4.8348    5.8633    0.0626 H   0  0  0  0  0  0  0  0  0  0  0  0
    4.4105    6.3448   -1.8676 O   0  0  0  0  0  0  0  0  0  0  0  0
    2.7983    5.3304   -0.3824 C   0  0  2  0  0  0  0  0  0  0  0  0
    2.1993    5.0184   -1.2455 H   0  0  0  0  0  0  0  0  0  0  0  0
    2.3153    6.6306   -0.0047 O   0  0  0  0  0  0  0  0  0  0  0  0
    2.6294    4.3538    0.7916 C   0  0  1  0  0  0  0  0  0  0  0  0
    3.1556    4.7834    1.6543 H   0  0  0  0  0  0  0  0  0  0  0  0
    1.2066    4.2314    1.1870 N   0  0  0  0  0  0  0  0  0  0  0  0
    4.8240    0.8319    0.8415 H   0  0  0  0  0  0  0  0  0  0  0  0
    3.8122   -1.7767    1.7035 H   0  0  0  0  0  0  0  0  0  0  0  0
    3.0208   -3.8661   -0.8472 H   0  0  0  0  0  0  0  0  0  0  0  0
    3.9601   -3.2771   -2.0185 H   0  0  0  0  0  0  0  0  0  0  0  0
    1.8873   -1.3642   -3.2404 H   0  0  0  0  0  0  0  0  0  0  0  0
    3.5795   -0.9746   -2.9368 H   0  0  0  0  0  0  0  0  0  0  0  0
    1.5620    0.9340   -3.9500 H   0  0  0  0  0  0  0  0  0  0  0  0
    3.1298    1.2803   -3.6810 H   0  0  0  0  0  0  0  0  0  0  0  0
    6.9012    4.4225   -0.6284 H   0  0  0  0  0  0  0  0  0  0  0  0
    6.4616    4.7594   -2.3153 H   0  0  0  0  0  0  0  0  0  0  0  0
    6.7369    2.1368   -1.0542 H   0  0  0  0  0  0  0  0  0  0  0  0
    7.7917    2.8156   -2.0929 H   0  0  0  0  0  0  0  0  0  0  0  0
    4.3463    5.8505   -2.7053 H   0  0  0  0  0  0  0  0  0  0  0  0
    2.6948    7.2507   -0.6570 H   0  0  0  0  0  0  0  0  0  0  0  0
    0.7110    3.7562    0.4291 H   0  0  0  0  0  0  0  0  0  0  0  0
    0.8240    5.1818    1.2096 H   0  0  0  0  0  0  0  0  0  0  0  0
  1 33  1  0  0  0  0
  2  4  1  6  0  0  0
  2  3  1  0  0  0  0
  2  1  1  0  0  0  0
  4  5  1  0  0  0  0
  4  6  1  0  0  0  0
  4  7  1  6  0  0  0
  6 34  1  0  0  0  0
  7  8  1  1  0  0  0
  7  9  1  0  0  0  0
  7 10  1  0  0  0  0
  9 35  1  0  0  0  0
  9 36  1  0  0  0  0
 10 11  1  0  0  0  0
 10 37  1  0  0  0  0
 10 38  1  0  0  0  0
 11 12  1  0  0  0  0
 11 13  1  0  0  0  0
 11 14  1  1  0  0  0
 13 39  1  0  0  0  0
 13 40  1  0  0  0  0
 14  2  1  1  0  0  0
 14 16  1  0  0  0  0
 14 15  1  0  0  0  0
 16 17  1  0  0  0  0
 17 18  1  0  0  0  0
 17 19  1  0  0  0  0
 17 30  1  1  0  0  0
 19 20  1  0  0  0  0
 20 21  1  0  0  0  0
 20 22  1  0  0  0  0
 20 24  1  1  0  0  0
 22 23  1  0  0  0  0
 22 41  1  0  0  0  0
 22 42  1  0  0  0  0
 23 43  1  0  0  0  0
 23 44  1  0  0  0  0
 24 27  1  1  0  0  0
 24 26  1  0  0  0  0
 24 25  1  0  0  0  0
 26 45  1  0  0  0  0
 27 28  1  0  0  0  0
 27 29  1  0  0  0  0
 27 30  1  1  0  0  0
 29 46  1  0  0  0  0
 30 32  1  0  0  0  0
 30 31  1  1  0  0  0
 32 47  1  0  0  0  0
 32 48  1  0  0  0  0
M  END
$$$$
