REMARK  11 active torsions:
REMARK  status: ('A' for Active; 'I' for Inactive)
REMARK    1  A    between atoms: C_2  and  O_1 
REMARK    2  A    between atoms: C_3  and  O_4 
REMARK    3  A    between atoms: C_5  and  N_6 
REMARK    4  A    between atoms: C_8  and  N_9 
REMARK    5  A    between atoms: C_10  and  O_11 
REMARK    6  A    between atoms: O_11  and  C_12 
REMARK    7  A    between atoms: C_14  and  C_15 
REMARK    8  A    between atoms: C_15  and  N_16 
REMARK    9  A    between atoms: C_17  and  O_18 
REMARK   10  A    between atoms: C_19  and  O_20 
REMARK   11  A    between atoms: C_21  and  N_22 
ROOT
ATOM      1  C   UNL d   1       3.297   2.994   0.456  0.00  0.00     0.296 C 
ATOM      2  O   UNL d   1       4.664   3.159   0.057  0.00  0.00    -0.349 OA
ATOM      3  C   UNL d   1       4.813   4.020  -1.089  0.00  0.00     0.183 C 
ATOM      4  C   UNL d   1       4.278   5.427  -0.776  0.00  0.00     0.179 C 
ATOM      5  C   UNL d   1       2.798   5.330  -0.382  0.00  0.00     0.187 C 
ATOM      6  C   UNL d   1       2.629   4.354   0.792  0.00  0.00     0.303 C 
ENDROOT
BRANCH   1   7
ATOM      7  O   UNL d   1       2.543   2.281  -0.530  0.00  0.00    -0.349 OA
BRANCH   7   8
ATOM      8  C   UNL d   1       3.079   0.993  -0.910  0.00  0.00     0.189 C 
ATOM      9  C   UNL d   1       2.180   0.433  -2.058  0.00  0.00     0.251 C 
ATOM     10  C   UNL d   1       2.582  -0.991  -2.475  0.00  0.00     0.076 C 
ATOM     11  C   UNL d   1       2.579  -1.943  -1.281  0.00  0.00     0.251 C 
ATOM     12  C   UNL d   1       3.507  -1.420  -0.176  0.00  0.00     0.182 C 
ATOM     13  C   UNL d   1       3.127  -0.007   0.274  0.00  0.00     0.180 C 
BRANCH   9  14
ATOM     14  N   UNL d   1       2.207   1.305  -3.250  0.00  0.00     0.085 N 
ATOM     15  H   UNL d   1       1.562   0.934  -3.950  0.00  0.00     0.313 HD
ATOM     16  H   UNL d   1       3.130   1.280  -3.681  0.00  0.00     0.313 HD
ENDBRANCH   9  14
BRANCH  11  17
ATOM     17  N   UNL d   1       2.991  -3.294  -1.700  0.00  0.00     0.085 N 
ATOM     18  H   UNL d   1       3.021  -3.866  -0.847  0.00  0.00     0.313 HD
ATOM     19  H   UNL d   1       3.960  -3.277  -2.018  0.00  0.00     0.313 HD
ENDBRANCH  11  17
BRANCH  12  20
ATOM     20  O   UNL d   1       3.460  -2.301   0.957  0.00  0.00    -0.391 OA
ATOM     21  H   UNL d   1       3.812  -1.777   1.704  0.00  0.00     0.210 HD
ENDBRANCH  12  20
BRANCH  13  22
ATOM     22  O   UNL d   1       4.111   0.332   1.272  0.00  0.00    -0.390 OA
ATOM     23  H   UNL d   1       4.824   0.832   0.842  0.00  0.00     0.210 HD
ENDBRANCH  13  22
ENDBRANCH   7   8
ENDBRANCH   1   7
BRANCH   6  24
ATOM     24  N   UNL d   1       1.207   4.231   1.187  0.00  0.00     0.090 N 
ATOM     25  H   UNL d   1       0.711   3.756   0.429  0.00  0.00     0.313 HD
ATOM     26  H   UNL d   1       0.824   5.182   1.210  0.00  0.00     0.313 HD
ENDBRANCH   6  24
BRANCH   3  27
ATOM     27  C   UNL d   1       6.304   4.072  -1.478  0.00  0.00     0.301 C 
BRANCH  27  28
ATOM     28  N   UNL d   1       6.798   2.745  -1.871  0.00  0.00     0.080 N 
ATOM     29  H   UNL d   1       6.737   2.137  -1.054  0.00  0.00     0.312 HD
ATOM     30  H   UNL d   1       7.792   2.816  -2.093  0.00  0.00     0.312 HD
ENDBRANCH  27  28
ENDBRANCH   3  27
BRANCH   5  31
ATOM     31  O   UNL d   1       2.315   6.631  -0.005  0.00  0.00    -0.391 OA
ATOM     32  H   UNL d   1       2.695   7.251  -0.657  0.00  0.00     0.210 HD
ENDBRANCH   5  31
BRANCH   4  33
ATOM     33  O   UNL d   1       4.410   6.345  -1.868  0.00  0.00    -0.390 OA
ATOM     34  H   UNL d   1       4.346   5.851  -2.705  0.00  0.00     0.210 HD
ENDBRANCH   4  33
TORSDOF 11
