@<TRIPOS>MOLECULE
2FCX_XXX_A_101
 48 49 0 0 0
SMALL
GASTEIGER

@<TRIPOS>ATOM
      1 O           4.1113    0.3319    1.2720 O.3     1  UNL1       -0.3866
      2 C           3.1268   -0.0070    0.2736 C.3     1  UNL1        0.1101
      3 H           2.1632   -0.0134    0.7972 H       1  UNL1        0.0646
      4 C           3.5071   -1.4204   -0.1760 C.3     1  UNL1        0.0986
      5 H           4.5491   -1.4227   -0.5199 H       1  UNL1        0.0635
      6 O           3.4597   -2.3015    0.9565 O.3     1  UNL1       -0.3876
      7 C           2.5795   -1.9430   -1.2808 C.3     1  UNL1        0.0351
      8 H           1.5600   -2.0328   -0.8841 H       1  UNL1        0.0485
      9 N           2.9911   -3.2944   -1.7004 N.3     1  UNL1       -0.3250
     10 C           2.5817   -0.9911   -2.4748 C.3     1  UNL1       -0.0175
     11 C           2.1805    0.4330   -2.0575 C.3     1  UNL1        0.0355
     12 H           1.1416    0.4237   -1.7026 H       1  UNL1        0.0485
     13 N           2.2066    1.3049   -3.2498 N.3     1  UNL1       -0.3250
     14 C           3.0791    0.9926   -0.9103 C.3     1  UNL1        0.1051
     15 H           4.0930    1.1428   -1.3028 H       1  UNL1        0.0639
     16 O           2.5428    2.2815   -0.5300 O.3     1  UNL1       -0.3422
     17 C           3.2971    2.9937    0.4557 C.3     1  UNL1        0.1776
     18 H           3.2816    2.4302    1.3904 H       1  UNL1        0.0927
     19 O           4.6643    3.1589    0.0572 O.3     1  UNL1       -0.3425
     20 C           4.8128    4.0202   -1.0891 C.3     1  UNL1        0.1022
     21 H           4.2610    3.5977   -1.9400 H       1  UNL1        0.0636
     22 C           6.3038    4.0719   -1.4779 C.3     1  UNL1        0.0222
     23 N           6.7983    2.7454   -1.8711 N.3     1  UNL1       -0.3276
     24 C           4.2776    5.4267   -0.7757 C.3     1  UNL1        0.1100
     25 H           4.8348    5.8633    0.0626 H       1  UNL1        0.0646
     26 O           4.4105    6.3448   -1.8676 O.3     1  UNL1       -0.3866
     27 C           2.7983    5.3304   -0.3824 C.3     1  UNL1        0.1033
     28 H           2.1993    5.0184   -1.2455 H       1  UNL1        0.0637
     29 O           2.3153    6.6306   -0.0047 O.3     1  UNL1       -0.3874
     30 C           2.6294    4.3538    0.7916 C.3     1  UNL1        0.0853
     31 H           3.1556    4.7834    1.6543 H       1  UNL1        0.0535
     32 N           1.2066    4.2314    1.1870 N.3     1  UNL1       -0.3211
     33 H           4.8240    0.8319    0.8415 H       1  UNL1        0.2100
     34 H           3.8122   -1.7767    1.7035 H       1  UNL1        0.2100
     35 H           3.0208   -3.8661   -0.8472 H       1  UNL1        0.1185
     36 H           3.9601   -3.2771   -2.0185 H       1  UNL1        0.1185
     37 H           1.8873   -1.3642   -3.2404 H       1  UNL1        0.0297
     38 H           3.5795   -0.9746   -2.9368 H       1  UNL1        0.0297
     39 H           1.5620    0.9340   -3.9500 H       1  UNL1        0.1185
     40 H           3.1298    1.2803   -3.6810 H       1  UNL1        0.1185
     41 H           6.9012    4.4225   -0.6284 H       1  UNL1        0.0448
     42 H           6.4616    4.7594   -2.3153 H       1  UNL1        0.0448
     43 H           6.7369    2.1368   -1.0542 H       1  UNL1        0.1183
     44 H           7.7917    2.8156   -2.0929 H       1  UNL1        0.1183
     45 H           4.3463    5.8505   -2.7053 H       1  UNL1        0.2100
     46 H           2.6948    7.2507   -0.6570 H       1  UNL1        0.2100
     47 H           0.7110    3.7562    0.4291 H       1  UNL1        0.1187
     48 H           0.8240    5.1818    1.2096 H       1  UNL1        0.1187
@<TRIPOS>BOND
     1     1    33    1
     2     2     4    1
     3     2     3    1
     4     2     1    1
     5     4     5    1
     6     4     6    1
     7     4     7    1
     8     6    34    1
     9     7     8    1
    10     7     9    1
    11     7    10    1
    12     9    35    1
    13     9    36    1
    14    10    11    1
    15    10    37    1
    16    10    38    1
    17    11    12    1
    18    11    13    1
    19    11    14    1
    20    13    39    1
    21    13    40    1
    22    14     2    1
    23    14    16    1
    24    14    15    1
    25    16    17    1
    26    17    18    1
    27    17    19    1
    28    17    30    1
    29    19    20    1
    30    20    21    1
    31    20    22    1
    32    20    24    1
    33    22    23    1
    34    22    41    1
    35    22    42    1
    36    23    43    1
    37    23    44    1
    38    24    27    1
    39    24    26    1
    40    24    25    1
    41    26    45    1
    42    27    28    1
    43    27    29    1
    44    27    30    1
    45    29    46    1
    46    30    32    1
    47    30    31    1
    48    32    47    1
    49    32    48    1
