@<TRIPOS>MOLECULE
ligand.pdb
 27 29 0 0 0
SMALL
GASTEIGER

@<TRIPOS>ATOM
      1 N          -8.4390   27.1460   69.6300 N.3     1  UNL1       -0.1208
      2 CA         -9.2710   27.7030   68.5340 C.3     1  UNL1        0.1952
      3 C         -10.7490   27.4140   68.7890 C.2     1  UNL1        0.3819
      4 O         -11.6010   27.8340   68.0130 O.co2   1  UNL1       -0.2441
      5 OXT       -11.0930   26.7080   69.7270 O.co2   1  UNL1       -0.2441
      6 C          -8.8700   27.0610   67.1900 C.3     1  UNL1        0.0414
      7 C          -7.6450   27.7360   66.5440 C.3     1  UNL1        0.0503
      8 S          -6.6170   26.4450   65.7640 S.3     1  UNL1       -0.1761
      9 C          -5.1480   26.6040   66.8120 C.3     1  UNL1        0.0590
     10 C          -6.0000   27.2740   64.2720 C.3     1  UNL1        0.0805
     11 C          -5.1240   26.2740   63.5220 C.3     1  UNL1        0.1602
     12 O          -5.8820   25.1010   63.3320 O.3     1  UNL1       -0.3324
     13 C          -4.7480   26.7820   62.1260 C.3     1  UNL1        0.2144
     14 O          -3.4030   27.2740   62.0730 O.3     1  UNL1       -0.2176
     15 C          -4.9140   25.5240   61.2210 C.3     1  UNL1        0.2336
     16 O          -3.7630   25.4030   60.3760 O.3     1  UNL1       -0.2155
     17 C          -5.2870   24.4020   62.2500 C.3     1  UNL1        0.2409
     18 N          -6.2360   23.4120   61.7220 N.ar    1  UNL1       -0.2693
     19 C          -7.4800   23.6610   61.2000 C.ar    1  UNL1        0.1816
     20 N          -8.0490   22.5420   60.8270 N.ar    1  UNL1       -0.2193
     21 C          -7.2170   21.5070   61.0860 C.ar    1  UNL1        0.1518
     22 C          -7.2700   20.0990   60.9110 C.ar    1  UNL1        0.1919
     23 N          -8.3730   19.5080   60.3500 N.pl3   1  UNL1       -0.1054
     24 N          -6.2230   19.3490   61.3010 N.ar    1  UNL1       -0.2040
     25 C          -5.1440   19.8950   61.8590 C.ar    1  UNL1        0.2016
     26 N          -5.0390   21.2180   62.0230 N.ar    1  UNL1       -0.2048
     27 C          -6.0390   22.0510   61.6670 C.ar    1  UNL1        0.1692
@<TRIPOS>BOND
     1     2     3    1
     2     2     6    1
     3     2     1    1
     4     3     4   ar
     5     3     5   ar
     6     6     7    1
     7     7     8    1
     8     8     9    1
     9     8    10    1
    10    11    12    1
    11    11    13    1
    12    11    10    1
    13    12    17    1
    14    13    14    1
    15    13    15    1
    16    15    16    1
    17    15    17    1
    18    17    18    1
    19    18    19   ar
    20    18    27   ar
    21    19    20   ar
    22    20    21   ar
    23    21    22   ar
    24    21    27   ar
    25    22    23    1
    26    22    24   ar
    27    24    25   ar
    28    25    26   ar
    29    26    27   ar
