ligand.pdb
 OpenBabel03221814123D

 27 29  0  0  1  0  0  0  0  0999 V2000
   -8.4390   27.1460   69.6300 N   0  0  0  0  0  0  0  0  0  0  0  0
   -9.2710   27.7030   68.5340 C   0  0  2  0  0  0  0  0  0  0  0  0
  -10.7490   27.4140   68.7890 C   0  0  0  0  0  0  0  0  0  0  0  0
  -11.6010   27.8340   68.0130 O   0  0  0  0  0  0  0  0  0  0  0  0
  -11.0930   26.7080   69.7270 O   0  0  0  0  0  0  0  0  0  0  0  0
   -8.8700   27.0610   67.1900 C   0  0  0  0  0  0  0  0  0  0  0  0
   -7.6450   27.7360   66.5440 C   0  0  0  0  0  0  0  0  0  0  0  0
   -6.6170   26.4450   65.7640 S   0  0  2  0  0  0  0  0  0  0  0  0
   -5.1480   26.6040   66.8120 C   0  0  0  0  0  0  0  0  0  0  0  0
   -6.0000   27.2740   64.2720 C   0  0  0  0  0  0  0  0  0  0  0  0
   -5.1240   26.2740   63.5220 C   0  0  1  0  0  0  0  0  0  0  0  0
   -5.8820   25.1010   63.3320 O   0  0  0  0  0  0  0  0  0  0  0  0
   -4.7480   26.7820   62.1260 C   0  0  1  0  0  0  0  0  0  0  0  0
   -3.4030   27.2740   62.0730 O   0  0  0  0  0  0  0  0  0  0  0  0
   -4.9140   25.5240   61.2210 C   0  0  1  0  0  0  0  0  0  0  0  0
   -3.7630   25.4030   60.3760 O   0  0  0  0  0  0  0  0  0  0  0  0
   -5.2870   24.4020   62.2500 C   0  0  2  0  0  0  0  0  0  0  0  0
   -6.2360   23.4120   61.7220 N   0  0  0  0  0  0  0  0  0  0  0  0
   -7.4800   23.6610   61.2000 C   0  0  0  0  0  0  0  0  0  0  0  0
   -8.0490   22.5420   60.8270 N   0  0  0  0  0  0  0  0  0  0  0  0
   -7.2170   21.5070   61.0860 C   0  0  0  0  0  0  0  0  0  0  0  0
   -7.2700   20.0990   60.9110 C   0  0  0  0  0  0  0  0  0  0  0  0
   -8.3730   19.5080   60.3500 N   0  0  0  0  0  0  0  0  0  0  0  0
   -6.2230   19.3490   61.3010 N   0  0  0  0  0  0  0  0  0  0  0  0
   -5.1440   19.8950   61.8590 C   0  0  0  0  0  0  0  0  0  0  0  0
   -5.0390   21.2180   62.0230 N   0  0  0  0  0  0  0  0  0  0  0  0
   -6.0390   22.0510   61.6670 C   0  0  0  0  0  0  0  0  0  0  0  0
  2  3  1  0  0  0  0
  2  6  1  0  0  0  0
  2  1  1  1  0  0  0
  3  4  2  0  0  0  0
  3  5  1  0  0  0  0
  6  7  1  0  0  0  0
  7  8  1  0  0  0  0
  8  9  1  1  0  0  0
  8 10  1  0  0  0  0
 11 12  1  0  0  0  0
 11 13  1  0  0  0  0
 11 10  1  6  0  0  0
 12 17  1  0  0  0  0
 13 14  1  1  0  0  0
 13 15  1  0  0  0  0
 15 16  1  1  0  0  0
 15 17  1  0  0  0  0
 17 18  1  6  0  0  0
 18 19  1  0  0  0  0
 18 27  1  0  0  0  0
 19 20  2  0  0  0  0
 20 21  1  0  0  0  0
 21 22  1  0  0  0  0
 21 27  2  0  0  0  0
 22 23  1  0  0  0  0
 22 24  2  0  0  0  0
 24 25  1  0  0  0  0
 25 26  2  0  0  0  0
 26 27  1  0  0  0  0
M  END
>  <HEADER>
RNA                                     10-AUG-07   2QWY

>  <TITLE>
SAM-II RIBOSWITCH BOUND TO S-ADENOSYLMETHIONINE

>  <COMPND>
MOL_ID: 1;
2 MOLECULE: SAM-II RIBOSWITCH;
3 CHAIN: A, B, C;
4 ENGINEERED: YES

>  <SOURCE>
MOL_ID: 1;
2 SYNTHETIC: YES;
3 OTHER_DETAILS: THE SEQUENCE WAS ENGINEERED BASED ON THE
4 SAM-II RIBOSWITCH FOUND UPSTREAM OF THE METX GENE DERIVED
5 FROM A SARGASSO SEA ENVIRONMENTAL SEQUENCE (ENV12).

>  <KEYWDS>
MRNA, RIBOSWITCH, SAM, S-ADENOSYLMETHIONINE, ADOMET, RNA-
2 LIGAND COMPLEX, DOUBLE HELIX, PSEUDOKNOT, BASE TRIPLE

>  <EXPDTA>
X-RAY DIFFRACTION

>  <AUTHOR>
S.D.GILBERT,R.P.RAMBO,D.VAN TYNE,R.T.BATEY

>  <REVDAT>
3   24-FEB-09 2QWY    1       VERSN
2   19-FEB-08 2QWY    1       JRNL
1   22-JAN-08 2QWY    0

>  <JRNL>
AUTH   S.D.GILBERT,R.P.RAMBO,D.VAN TYNE,R.T.BATEY
TITL   STRUCTURE OF THE SAM-II RIBOSWITCH BOUND TO
TITL 2 S-ADENOSYLMETHIONINE.
REF    NAT.STRUCT.MOL.BIOL.          V.  15   177 2008
REFN                   ISSN 1545-9993
PMID   18204466
DOI    10.1038/NSMB.1371

>  <REMARK>
1
2
2 RESOLUTION.    2.80 ANGSTROMS.
3
3 REFINEMENT.
3   PROGRAM     : CNS 1.2
3   AUTHORS     : BRUNGER,ADAMS,CLORE,DELANO,GROS,GROSSE-
3               : KUNSTLEVE,JIANG,KUSZEWSKI,NILGES, PANNU,
3               : READ,RICE,SIMONSON,WARREN
3
3  REFINEMENT TARGET : NULL
3
3  DATA USED IN REFINEMENT.
3   RESOLUTION RANGE HIGH (ANGSTROMS) : 2.80
3   RESOLUTION RANGE LOW  (ANGSTROMS) : 19.90
3   DATA CUTOFF            (SIGMA(F)) : 0.000
3   DATA CUTOFF HIGH         (ABS(F)) : 1022121.530
3   DATA CUTOFF LOW          (ABS(F)) : 0.0000
3   COMPLETENESS (WORKING+TEST)   (%) : 97.9
3   NUMBER OF REFLECTIONS             : 26866
3
3  FIT TO DATA USED IN REFINEMENT.
3   CROSS-VALIDATION METHOD          : THROUGHOUT
3   FREE R VALUE TEST SET SELECTION  : RANDOM
3   R VALUE            (WORKING SET) : 0.206
3   FREE R VALUE                     : 0.263
3   FREE R VALUE TEST SET SIZE   (%) : 7.200
3   FREE R VALUE TEST SET COUNT      : 1924
3   ESTIMATED ERROR OF FREE R VALUE  : 0.006
3
3  FIT IN THE HIGHEST RESOLUTION BIN.
3   TOTAL NUMBER OF BINS USED           : 6
3   BIN RESOLUTION RANGE HIGH       (A) : 2.80
3   BIN RESOLUTION RANGE LOW        (A) : 2.97
3   BIN COMPLETENESS (WORKING+TEST) (%) : 94.80
3   REFLECTIONS IN BIN    (WORKING SET) : 4033
3   BIN R VALUE           (WORKING SET) : 0.4070
3   BIN FREE R VALUE                    : 0.4080
3   BIN FREE R VALUE TEST SET SIZE  (%) : 7.40
3   BIN FREE R VALUE TEST SET COUNT     : 324
3   ESTIMATED ERROR OF BIN FREE R VALUE : 0.023
3
3  NUMBER OF NON-HYDROGEN ATOMS USED IN REFINEMENT.
3   PROTEIN ATOMS            : 0
3   NUCLEIC ACID ATOMS       : 3354
3   HETEROGEN ATOMS          : 105
3   SOLVENT ATOMS            : 154
3
3  B VALUES.
3   FROM WILSON PLOT           (A**2) : 129.50
3   MEAN B VALUE      (OVERALL, A**2) : 65.60
3   OVERALL ANISOTROPIC B VALUE.
3    B11 (A**2) : 34.88000
3    B22 (A**2) : -5.03000
3    B33 (A**2) : -29.85000
3    B12 (A**2) : 0.00000
3    B13 (A**2) : 23.73000
3    B23 (A**2) : 0.00000
3
3  ESTIMATED COORDINATE ERROR.
3   ESD FROM LUZZATI PLOT        (A) : 0.40
3   ESD FROM SIGMAA              (A) : 0.62
3   LOW RESOLUTION CUTOFF        (A) : 5.00
3
3  CROSS-VALIDATED ESTIMATED COORDINATE ERROR.
3   ESD FROM C-V LUZZATI PLOT    (A) : 0.50
3   ESD FROM C-V SIGMAA          (A) : 0.62
3
3  RMS DEVIATIONS FROM IDEAL VALUES.
3   BOND LENGTHS                 (A) : 0.006
3   BOND ANGLES            (DEGREES) : 1.00
3   DIHEDRAL ANGLES        (DEGREES) : 21.50
3   IMPROPER ANGLES        (DEGREES) : 1.40
3
3  ISOTROPIC THERMAL MODEL : RESTRAINED
3
3  ISOTROPIC THERMAL FACTOR RESTRAINTS.    RMS    SIGMA
3   MAIN-CHAIN BOND              (A**2) : NULL  ; NULL
3   MAIN-CHAIN ANGLE             (A**2) : NULL  ; NULL
3   SIDE-CHAIN BOND              (A**2) : NULL  ; NULL
3   SIDE-CHAIN ANGLE             (A**2) : NULL  ; NULL
3
3  BULK SOLVENT MODELING.
3   METHOD USED : FLAT MODEL
3   KSOL        : 0.25
3   BSOL        : 9.21
3
3  NCS MODEL : NULL
3
3  NCS RESTRAINTS.                         RMS   SIGMA/WEIGHT
3   GROUP  1  POSITIONAL            (A) : NULL  ; NULL
3   GROUP  1  B-FACTOR           (A**2) : NULL  ; NULL
3
3  PARAMETER FILE  1  : PROTEIN_REP.PARAM
3  PARAMETER FILE  2  : DNA-RNA_REP_REVISE4.PARAM
3  PARAMETER FILE  3  : WATER_REP.PARAM
3  PARAMETER FILE  4  : ION.PARAM
3  PARAMETER FILE  5  : SAM7.PARAM
3  PARAMETER FILE  6  : NULL
3  TOPOLOGY FILE  1   : PROTEIN.TOP
3  TOPOLOGY FILE  2   : DNA-RNA_REP_REVISE4.TOP
3  TOPOLOGY FILE  3   : WATER_REP.TOP
3  TOPOLOGY FILE  4   : ION.TOP
3  TOPOLOGY FILE  5   : SAM7.TOP
3  TOPOLOGY FILE  6   : NULL
3
3  OTHER REFINEMENT REMARKS: BULK SOLVENT MODEL USED
4
4 2QWY COMPLIES WITH FORMAT V. 3.15, 01-DEC-08
100
100 THIS ENTRY HAS BEEN PROCESSED BY RCSB ON 30-AUG-07.
100 THE RCSB ID CODE IS RCSB044148.
200
200 EXPERIMENTAL DETAILS
200  EXPERIMENT TYPE                : X-RAY DIFFRACTION
200  DATE OF DATA COLLECTION        : 10-APR-07
200  TEMPERATURE           (KELVIN) : 100
200  PH                             : 6.0
200  NUMBER OF CRYSTALS USED        : 1
200
200  SYNCHROTRON              (Y/N) : N
200  RADIATION SOURCE               : ROTATING ANODE
200  BEAMLINE                       : NULL
200  X-RAY GENERATOR MODEL          : RIGAKU
200  MONOCHROMATIC OR LAUE    (M/L) : M
200  WAVELENGTH OR RANGE        (A) : 1.5418
200  MONOCHROMATOR                  : NICKEL FILTER
200  OPTICS                         : NULL
200
200  DETECTOR TYPE                  : NULL
200  DETECTOR MANUFACTURER          : NULL
200  INTENSITY-INTEGRATION SOFTWARE : HKL-2000
200  DATA SCALING SOFTWARE          : HKL-2000
200
200  NUMBER OF UNIQUE REFLECTIONS   : 26866
200  RESOLUTION RANGE HIGH      (A) : 2.800
200  RESOLUTION RANGE LOW       (A) : 20.000
200  REJECTION CRITERIA  (SIGMA(I)) : 3.000
200
200 OVERALL.
200  COMPLETENESS FOR RANGE     (%) : 97.9
200  DATA REDUNDANCY                : 7.800
200  R MERGE                    (I) : NULL
200  R SYM                      (I) : 0.06100
200  <I/SIGMA(I)> FOR THE DATA SET  : 31.9000
200
200 IN THE HIGHEST RESOLUTION SHELL.
200  HIGHEST RESOLUTION SHELL, RANGE HIGH (A) : 2.80
200  HIGHEST RESOLUTION SHELL, RANGE LOW  (A) : 2.90
200  COMPLETENESS FOR SHELL     (%) : 94.7
200  DATA REDUNDANCY IN SHELL       : 7.70
200  R MERGE FOR SHELL          (I) : NULL
200  R SYM FOR SHELL            (I) : 0.34900
200  <I/SIGMA(I)> FOR SHELL         : 5.000
200
200 DIFFRACTION PROTOCOL: SINGLE WAVELENGTH
200 METHOD USED TO DETERMINE THE STRUCTURE: SIRAS
200 SOFTWARE USED: SOLVE
200 STARTING MODEL: NULL
200
200 REMARK: NULL
280
280 CRYSTAL
280 SOLVENT CONTENT, VS   (%): 56.98
280 MATTHEWS COEFFICIENT, VM (ANGSTROMS**3/DA): 2.86
280
280 CRYSTALLIZATION CONDITIONS: 640 MM AMMONIUM ACETATE, 10% PEG
280  1000, 10 MM BARIUM CHLORIDE, 50 MM SODIUM CACODYLATE, 8 MM
280  COBALT HEXAAMMINE CHLORIDE. MICRO-SEEDED., PH 6.0, VAPOR
280  DIFFUSION, HANGING DROP, TEMPERATURE 298K
290
290 CRYSTALLOGRAPHIC SYMMETRY
290 SYMMETRY OPERATORS FOR SPACE GROUP: C 1 2 1
290
290      SYMOP   SYMMETRY
290     NNNMMM   OPERATOR
290       1555   X,Y,Z
290       2555   -X,Y,-Z
290       3555   X+1/2,Y+1/2,Z
290       4555   -X+1/2,Y+1/2,-Z
290
290     WHERE NNN -> OPERATOR NUMBER
290           MMM -> TRANSLATION VECTOR
290
290 CRYSTALLOGRAPHIC SYMMETRY TRANSFORMATIONS
290 THE FOLLOWING TRANSFORMATIONS OPERATE ON THE ATOM/HETATM
290 RECORDS IN THIS ENTRY TO PRODUCE CRYSTALLOGRAPHICALLY
290 RELATED MOLECULES.
290   SMTRY1   1  1.000000  0.000000  0.000000        0.00000
290   SMTRY2   1  0.000000  1.000000  0.000000        0.00000
290   SMTRY3   1  0.000000  0.000000  1.000000        0.00000
290   SMTRY1   2 -1.000000  0.000000  0.000000        0.00000
290   SMTRY2   2  0.000000  1.000000  0.000000        0.00000
290   SMTRY3   2  0.000000  0.000000 -1.000000        0.00000
290   SMTRY1   3  1.000000  0.000000  0.000000       57.62900
290   SMTRY2   3  0.000000  1.000000  0.000000       24.04750
290   SMTRY3   3  0.000000  0.000000  1.000000        0.00000
290   SMTRY1   4 -1.000000  0.000000  0.000000       57.62900
290   SMTRY2   4  0.000000  1.000000  0.000000       24.04750
290   SMTRY3   4  0.000000  0.000000 -1.000000        0.00000
290
290 REMARK: NULL
300
300 BIOMOLECULE: 1, 2, 3
300 SEE REMARK 350 FOR THE AUTHOR PROVIDED AND/OR PROGRAM
300 GENERATED ASSEMBLY INFORMATION FOR THE STRUCTURE IN
300 THIS ENTRY. THE REMARK MAY ALSO PROVIDE INFORMATION ON
300 BURIED SURFACE AREA.
300 REMARK: THE DEPOSITED COORDINATES CONTAIN ALL INFORMATION
300 CORRESPONDING TO ONE BIOLOGICALLY RELEVANT UNIT REPEATED THREE
300 TIMES ACCORDING TO THE NUMBER OF RNA-LIGAND COMPLEXES OBSERVED
300 IN THE ASYMMETRIC UNIT.
350
350 COORDINATES FOR A COMPLETE MULTIMER REPRESENTING THE KNOWN
350 BIOLOGICALLY SIGNIFICANT OLIGOMERIZATION STATE OF THE
350 MOLECULE CAN BE GENERATED BY APPLYING BIOMT TRANSFORMATIONS
350 GIVEN BELOW.  BOTH NON-CRYSTALLOGRAPHIC AND
350 CRYSTALLOGRAPHIC OPERATIONS ARE GIVEN.
350
350 BIOMOLECULE: 1
350 AUTHOR DETERMINED BIOLOGICAL UNIT: MONOMERIC
350 APPLY THE FOLLOWING TO CHAINS: A
350   BIOMT1   1  1.000000  0.000000  0.000000        0.00000
350   BIOMT2   1  0.000000  1.000000  0.000000        0.00000
350   BIOMT3   1  0.000000  0.000000  1.000000        0.00000
350
350 BIOMOLECULE: 2
350 AUTHOR DETERMINED BIOLOGICAL UNIT: MONOMERIC
350 APPLY THE FOLLOWING TO CHAINS: B
350   BIOMT1   1  1.000000  0.000000  0.000000        0.00000
350   BIOMT2   1  0.000000  1.000000  0.000000        0.00000
350   BIOMT3   1  0.000000  0.000000  1.000000        0.00000
350
350 BIOMOLECULE: 3
350 AUTHOR DETERMINED BIOLOGICAL UNIT: MONOMERIC
350 APPLY THE FOLLOWING TO CHAINS: C
350   BIOMT1   1  1.000000  0.000000  0.000000        0.00000
350   BIOMT2   1  0.000000  1.000000  0.000000        0.00000
350   BIOMT3   1  0.000000  0.000000  1.000000        0.00000
500
500 GEOMETRY AND STEREOCHEMISTRY
500 SUBTOPIC: CLOSE CONTACTS IN SAME ASYMMETRIC UNIT
500
500 THE FOLLOWING ATOMS ARE IN CLOSE CONTACT.
500
500  ATM1  RES C  SSEQI   ATM2  RES C  SSEQI           DISTANCE
500   O2'  G   A    39     O    HOH A  1000              2.03
500   C2'  A   A    52     P    PO4 A    53              2.04
500   C2'  A   B    52     P    PO4 B    53              2.05
500   O6   G   B     6     O    HOH B  1005              2.17
500   O    HOH B  1002     O    HOH B  1106              2.17
500
500 REMARK: NULL
500
500 GEOMETRY AND STEREOCHEMISTRY
500 SUBTOPIC: CLOSE CONTACTS
500
500 THE FOLLOWING ATOMS THAT ARE RELATED BY CRYSTALLOGRAPHIC
500 SYMMETRY ARE IN CLOSE CONTACT.  AN ATOM LOCATED WITHIN 0.15
500 ANGSTROMS OF A SYMMETRY RELATED ATOM IS ASSUMED TO BE ON A
500 SPECIAL POSITION AND IS, THEREFORE, LISTED IN REMARK 375
500 INSTEAD OF REMARK 500.  ATOMS WITH NON-BLANK ALTERNATE
500 LOCATION INDICATORS ARE NOT INCLUDED IN THE CALCULATIONS.
500
500 DISTANCE CUTOFF:
500 2.2 ANGSTROMS FOR CONTACTS NOT INVOLVING HYDROGEN ATOMS
500 1.6 ANGSTROMS FOR CONTACTS INVOLVING HYDROGEN ATOMS
500
500  ATM1  RES C  SSEQI   ATM2  RES C  SSEQI  SSYMOP   DISTANCE
500   O2   U   A    18     O4   U   B    34     4556     2.15
500
500 REMARK: NULL
500
500 GEOMETRY AND STEREOCHEMISTRY
500 SUBTOPIC: COVALENT BOND ANGLES
500
500 THE STEREOCHEMICAL PARAMETERS OF THE FOLLOWING RESIDUES
500 HAVE VALUES WHICH DEVIATE FROM EXPECTED VALUES BY MORE
500 THAN 6*RMSD (M=MODEL NUMBER; RES=RESIDUE NAME; C=CHAIN
500 IDENTIFIER; SSEQ=SEQUENCE NUMBER; I=INSERTION CODE).
500
500 STANDARD TABLE:
500 FORMAT: (10X,I3,1X,A3,1X,A1,I4,A1,3(1X,A4,2X),12X,F5.1)
500
500 EXPECTED VALUES PROTEIN: ENGH AND HUBER, 1999
500 EXPECTED VALUES NUCLEIC ACID: CLOWNEY ET AL 1996
500
500  M RES CSSEQI ATM1   ATM2   ATM3
500      G B   1   OP1 -  P   -  OP2 ANGL. DEV. =  -9.7 DEGREES
500      G C   1   OP1 -  P   -  OP2 ANGL. DEV. =  -9.2 DEGREES
500
500 REMARK: NULL
500
500 GEOMETRY AND STEREOCHEMISTRY
500 SUBTOPIC: PLANAR GROUPS
500
500 PLANAR GROUPS IN THE FOLLOWING RESIDUES HAVE A TOTAL
500 RMS DISTANCE OF ALL ATOMS FROM THE BEST-FIT PLANE
500 BY MORE THAN AN EXPECTED VALUE OF 6*RMSD, WITH AN
500 RMSD 0.02 ANGSTROMS, OR AT LEAST ONE ATOM HAS
500 AN RMSD GREATER THAN THIS VALUE
500 (M=MODEL NUMBER; RES=RESIDUE NAME; C=CHAIN IDENTIFIER;
500 SSEQ=SEQUENCE NUMBER; I=INSERTION CODE).
500
500  M RES CSSEQI        RMS     TYPE
500      U B  10         0.07    SIDE_CHAIN
500      U B  34         0.07    SIDE_CHAIN
500
500 REMARK: NULL
600
600 HETEROGEN
600 EACH RNA MONOMER CONTAINS A 5'-DIPHOSPHATE AND A 2',3'-CYCLIC
600 PHOSPHATE. THESE RESIDUES HAVE BEEN SEPARATED INTO STANDARD
600 MONOPHOSPHATE NECLEOTIDE AND INDIVIDUAL PHOSPHATE DURING ENTRY
600 PROCESSING AT THE PROTEIN DATA BANK, AND THE LINK RECORDS HAVE
600 BEEN BUILT TO INDICATE THE CONNECTIONS.
610
610 MISSING HETEROATOM
610 THE FOLLOWING RESIDUES HAVE MISSING ATOMS (M=MODEL NUMBER;
610 RES=RESIDUE NAME; C=CHAIN IDENTIFIER; SSEQ=SEQUENCE NUMBER;
610 I=INSERTION CODE):
610   M RES C SSEQI
610     PO4 A    0
610     PO4 A   53
610     PO4 B    0
610     PO4 B   53
610     PO4 C    0
610     PO4 C   53
800
800 SITE
800 SITE_IDENTIFIER: AC2
800 EVIDENCE_CODE: SOFTWARE
800 SITE_DESCRIPTION: BINDING SITE FOR RESIDUE PO4 A 0
800 SITE_IDENTIFIER: AC8
800 EVIDENCE_CODE: SOFTWARE
800 SITE_DESCRIPTION: BINDING SITE FOR RESIDUE PO4 A 53
800 SITE_IDENTIFIER: AC9
800 EVIDENCE_CODE: SOFTWARE
800 SITE_DESCRIPTION: BINDING SITE FOR RESIDUE CS A 101
800 SITE_IDENTIFIER: AD1
800 EVIDENCE_CODE: SOFTWARE
800 SITE_DESCRIPTION: BINDING SITE FOR RESIDUE MG A 102
800 SITE_IDENTIFIER: AD2
800 EVIDENCE_CODE: SOFTWARE
800 SITE_DESCRIPTION: BINDING SITE FOR RESIDUE SAM A 100
800 SITE_IDENTIFIER: AD3
800 EVIDENCE_CODE: SOFTWARE
800 SITE_DESCRIPTION: BINDING SITE FOR RESIDUE PO4 B 0
800 SITE_IDENTIFIER: AD4
800 EVIDENCE_CODE: SOFTWARE
800 SITE_DESCRIPTION: BINDING SITE FOR RESIDUE PO4 B 53
800 SITE_IDENTIFIER: AD5
800 EVIDENCE_CODE: SOFTWARE
800 SITE_DESCRIPTION: BINDING SITE FOR RESIDUE SAM B 300
800 SITE_IDENTIFIER: AD6
800 EVIDENCE_CODE: SOFTWARE
800 SITE_DESCRIPTION: BINDING SITE FOR RESIDUE PO4 C 0
800 SITE_IDENTIFIER: BC1
800 EVIDENCE_CODE: SOFTWARE
800 SITE_DESCRIPTION: BINDING SITE FOR RESIDUE PO4 C 53
800 SITE_IDENTIFIER: BC2
800 EVIDENCE_CODE: SOFTWARE
800 SITE_DESCRIPTION: BINDING SITE FOR RESIDUE CS C 501
800 SITE_IDENTIFIER: BC3
800 EVIDENCE_CODE: SOFTWARE
800 SITE_DESCRIPTION: BINDING SITE FOR RESIDUE SAM C 500

>  <DBREF>
2QWY A    1    52  PDB    2QWY     2QWY             1     52
2QWY B    1    52  PDB    2QWY     2QWY             1     52
2QWY C    1    52  PDB    2QWY     2QWY             1     52

>  <SEQRES>
1 A   52    G   C   G   C   G   G   C   G   A   U   U   U   A
2 A   52    A   C   C   G   U   A   U   U   G   C   A   G   U
3 A   52    C   G   C   G   U   G   A   U   A   A   A   U   G
4 A   52    U   A   G   C   U   A   A   A   A   A   G   G   A
1 B   52    G   C   G   C   G   G   C   G   A   U   U   U   A
2 B   52    A   C   C   G   U   A   U   U   G   C   A   G   U
3 B   52    C   G   C   G   U   G   A   U   A   A   A   U   G
4 B   52    U   A   G   C   U   A   A   A   A   A   G   G   A
1 C   52    G   C   G   C   G   G   C   G   A   U   U   U   A
2 C   52    A   C   C   G   U   A   U   U   G   C   A   G   U
3 C   52    C   G   C   G   U   G   A   U   A   A   A   U   G
4 C   52    U   A   G   C   U   A   A   A   A   A   G   G   A

>  <HET>
PO4  A   0       4
PO4  A  53       3
CS  A 101       1
MG  A 102       1
SAM  A 100      27
PO4  B   0       4
PO4  B  53       3
SAM  B 300      27
PO4  C   0       4
PO4  C  53       3
CS  C 501       1
SAM  C 500      27

>  <HETNAM>
PO4 PHOSPHATE ION
CS CESIUM ION
MG MAGNESIUM ION
SAM S-ADENOSYLMETHIONINE

>  <FORMUL>
4  PO4    6(O4 P 3-)
6   CS    2(CS 1+)
7   MG    MG 2+
8  SAM    3(C15 H22 N6 O5 S)
16  HOH   *154(H2 O)

>  <LINK>
OP3   G A   1                 P   PO4 A   0     1555   1555  1.65
O2'   A A  52                 P   PO4 A  53     1555   1555  1.60
O3'   A A  52                 P   PO4 A  53     1555   1555  1.61
OP3   G B   1                 P   PO4 B   0     1555   1555  1.61
O2'   A B  52                 P   PO4 B  53     1555   1555  1.62
O3'   A B  52                 P   PO4 B  53     1555   1555  1.62
OP3   G C   1                 P   PO4 C   0     1555   1555  1.64
O2'   A C  52                 P   PO4 C  53     1555   1555  1.61
O3'   A C  52                 P   PO4 C  53     1555   1555  1.61

>  <SITE>
1 AC2  2   G A   1   MG A 102
1 AC8  1   A A  52
1 AC9  4   G A   5    G A   6    G A  25    U A  26
1 AD1  2 PO4 A   0  PO4 B   0
1 AD2 13   U A  10    U A  11    U A  12    U A  18
2 AD2 13   U A  20    U A  21    G A  22    U A  44
3 AD2 13   A A  45    A A  47  HOH A1053  HOH A1156
4 AD2 13 HOH A1164
1 AD3  3  MG A 102    G B   1  HOH B1004
1 AD4  2   C A  15    A B  52
1 AD5 13   A B   9    U B  10    U B  11    U B  12
2 AD5 13   G B  17    U B  18    U B  20    U B  21
3 AD5 13   G B  22    U B  44    A B  45    A B  47
4 AD5 13 HOH B1161
1 AD6  1   G C   1
1 BC1  2   C C  15    A C  52
1 BC2  4   G C   5    G C   6    G C  25    U C  26
1 BC3 13   A C   9    U C  10    U C  11    U C  12
2 BC3 13   U C  18    A C  19    U C  20    U C  21
3 BC3 13   G C  22    U C  44    A C  45    A C  47
4 BC3 13 HOH C1057

>  <ORIGX1>
1.000000  0.000000  0.000000        0.00000

>  <ORIGX2>
0.000000  1.000000  0.000000        0.00000

>  <ORIGX3>
0.000000  0.000000  1.000000        0.00000

>  <SCALE1>
0.008676  0.000000  0.002862        0.00000

>  <SCALE2>
0.000000  0.020792  0.000000        0.00000

>  <SCALE3>
0.000000  0.000000  0.009606        0.00000

$$$$
