REMARK  7 active torsions:
REMARK  status: ('A' for Active; 'I' for Inactive)
REMARK    1  A    between atoms: CA_2  and  C_3 
REMARK    2  A    between atoms: CA_2  and  C_6 
REMARK    3  A    between atoms: C_6  and  C_7 
REMARK    4  A    between atoms: C_7  and  S_8 
REMARK    5  A    between atoms: S_8  and  C_10 
REMARK    6  A    between atoms: C_11  and  C_10 
REMARK    7  A    between atoms: C_17  and  N_18 
ROOT
ATOM      1  C   UNL d   1      -5.124  26.274  63.522  0.00  0.00     0.160 C 
ATOM      2  O   UNL d   1      -5.882  25.101  63.332  0.00  0.00    -0.333 OA
ATOM      3  C   UNL d   1      -4.748  26.782  62.126  0.00  0.00     0.215 C 
ATOM      4  O   UNL d   1      -3.403  27.274  62.073  0.00  0.00    -0.218 OA
ATOM      5  C   UNL d   1      -4.914  25.524  61.221  0.00  0.00     0.234 C 
ATOM      6  O   UNL d   1      -3.763  25.403  60.376  0.00  0.00    -0.216 OA
ATOM      7  C   UNL d   1      -5.287  24.402  62.250  0.00  0.00     0.241 C 
ENDROOT
BRANCH   1   8
ATOM      8  C   UNL d   1      -6.000  27.274  64.272  0.00  0.00     0.081 C 
BRANCH   8   9
ATOM      9  S   UNL d   1      -6.617  26.445  65.764  0.00  0.00    -0.176 SA
ATOM     10  C   UNL d   1      -5.148  26.604  66.812  0.00  0.00     0.059 C 
BRANCH   9  11
ATOM     11  C   UNL d   1      -7.645  27.736  66.544  0.00  0.00     0.051 C 
BRANCH  11  12
ATOM     12  C   UNL d   1      -8.870  27.061  67.190  0.00  0.00     0.061 C 
BRANCH  12  13
ATOM     13  CA  UNL d   1      -9.271  27.703  68.534  0.00  0.00     0.388 C 
ATOM     14  N   UNL d   1      -8.439  27.146  69.630  0.00  0.00     0.628 N 
BRANCH  13  15
ATOM     15  C   UNL d   1     -10.749  27.414  68.789  0.00  0.00     0.224 C 
ATOM     16  O   UNL d   1     -11.601  27.834  68.013  0.00  0.00    -0.646 OA
ATOM     17  OXT UNL d   1     -11.093  26.708  69.727  0.00  0.00    -0.646 OA
ENDBRANCH  13  15
ENDBRANCH  12  13
ENDBRANCH  11  12
ENDBRANCH   9  11
ENDBRANCH   8   9
ENDBRANCH   1   8
BRANCH   7  18
ATOM     18  N   UNL d   1      -6.236  23.412  61.722  0.00  0.00    -0.270 N 
ATOM     19  C   UNL d   1      -7.480  23.661  61.200  0.00  0.00     0.182 A 
ATOM     20  N   UNL d   1      -8.049  22.542  60.827  0.00  0.00    -0.219 NA
ATOM     21  C   UNL d   1      -7.217  21.507  61.086  0.00  0.00     0.155 A 
ATOM     22  C   UNL d   1      -7.270  20.099  60.911  0.00  0.00     0.206 A 
ATOM     23  C   UNL d   1      -6.039  22.051  61.667  0.00  0.00     0.170 A 
ATOM     24  N   UNL d   1      -8.373  19.508  60.350  0.00  0.00    -0.125 N 
ATOM     25  N   UNL d   1      -6.223  19.349  61.301  0.00  0.00    -0.202 NA
ATOM     26  C   UNL d   1      -5.144  19.895  61.859  0.00  0.00     0.202 A 
ATOM     27  N   UNL d   1      -5.039  21.218  62.023  0.00  0.00    -0.205 NA
ENDBRANCH   7  18
TORSDOF 7
