4NFO_SPM_C_101
 OpenBabel10091713583D
Coordinates from PDB:4NFO:C:101 Model:1 without hydrogens
 14 13  0  0  0  0  0  0  0  0999 V2000
   46.6970   25.2440    9.1480 N   0  0  0  0  0  0  0  0  0  0  0  0
   47.4040   24.1080    9.7140 C   0  0  0  0  0  0  0  0  0  0  0  0
   46.4870   23.1770   10.5510 C   0  0  0  0  0  0  0  0  0  0  0  0
   47.1920   22.3520   11.6260 C   0  0  0  0  0  0  0  0  0  0  0  0
   47.8390   21.0530   11.3320 N   0  0  0  0  0  0  0  0  0  0  0  0
   48.3850   20.6580   10.0010 C   0  0  0  0  0  0  0  0  0  0  0  0
   49.8750   20.2550    9.7570 C   0  0  0  0  0  0  0  0  0  0  0  0
   50.5880   21.4310    9.1090 C   0  0  0  0  0  0  0  0  0  0  0  0
   50.1930   22.8720    9.4960 C   0  0  0  0  0  0  0  0  0  0  0  0
   51.2940   23.8020    9.7290 N   0  0  0  0  0  0  0  0  0  0  0  0
   52.6260   23.4480    9.3050 C   0  0  0  0  0  0  0  0  0  0  0  0
   53.6120   24.5620    9.3730 C   0  0  0  0  0  0  0  0  0  0  0  0
   54.5510   24.3330    8.1650 C   0  0  0  0  0  0  0  0  0  0  0  0
   55.5710   25.3960    8.1330 N   0  0  0  0  0  0  0  0  0  0  0  0
  1  2  1  0  0  0  0
  2  3  1  0  0  0  0
  3  4  1  0  0  0  0
  4  5  1  0  0  0  0
  5  6  1  0  0  0  0
  6  7  1  0  0  0  0
  7  8  1  0  0  0  0
  8  9  1  0  0  0  0
  9 10  1  0  0  0  0
 10 11  1  0  0  0  0
 11 12  1  0  0  0  0
 12 13  1  0  0  0  0
 13 14  1  0  0  0  0
A    1
N1
A    2
C2
A    3
C3
A    4
C4
A    5
N5
A    6
C6
A    7
C7
A    8
C8
A    9
C9
A   10
N10
A   11
C11
A   12
C12
A   13
C13
A   14
N14
M  END
>  <InstanceId>
4NFO_SPM_C_101

>  <ChemCompId>
SPM

>  <PdbId>
4NFO

>  <ChainId>
C

>  <ResidueNumber>
101

>  <InsertionCode>


>  <Model>
1

>  <AltIds>


>  <MissingHeavyAtoms>
0

>  <ObservedFormula>
C10 N4

>  <Name>
SPERMINE

>  <SystematicName>
N,N'-bis(3-aminopropyl)butane-1,4-diamine

>  <Synonyms>


>  <Type>
NON-POLYMER

>  <Formula>
C10 H26 N4

>  <MolecularWeight>
202.34

>  <ModifiedDate>
2011-06-04

>  <Parent>


>  <OneLetterCode>


>  <SubcomponentList>


>  <AmbiguousFlag>
N

>  <InChI>
InChI=1S/C10H26N4/c11-5-3-9-13-7-1-2-8-14-10-4-6-12/h13-14H,1-12H2

>  <InChIKey>
PFNFFQXMRSDOHW-UHFFFAOYSA-N

>  <SMILES>
C(CCNCCCN)CNCCCN

$$$$
