REMARK  11 active torsions:
REMARK  status: ('A' for Active; 'I' for Inactive)
REMARK    1  A    between atoms: C_2  and  C_3 
REMARK    2  A    between atoms: C_3  and  C_4 
REMARK    3  A    between atoms: C_4  and  N_5 
REMARK    4  A    between atoms: N_5  and  C_6 
REMARK    5  A    between atoms: C_6  and  C_7 
REMARK    6  A    between atoms: C_7  and  C_8 
REMARK    7  A    between atoms: C_8  and  C_9 
REMARK    8  A    between atoms: C_9  and  N_10 
REMARK    9  A    between atoms: N_10  and  C_11 
REMARK   10  A    between atoms: C_11  and  C_12 
REMARK   11  A    between atoms: C_12  and  C_13 
ROOT
ATOM      1  C   UNL d   1      49.875  20.255   9.757  0.00  0.00     0.049 C 
ENDROOT
BRANCH   1   2
ATOM      2  C   UNL d   1      48.385  20.658  10.001  0.00  0.00     0.072 C 
BRANCH   2   3
ATOM      3  N   UNL d   1      47.839  21.053  11.332  0.00  0.00    -0.252 NA
BRANCH   3   4
ATOM      4  C   UNL d   1      47.192  22.352  11.626  0.00  0.00     0.074 C 
BRANCH   4   5
ATOM      5  C   UNL d   1      46.487  23.177  10.551  0.00  0.00     0.088 C 
BRANCH   5   6
ATOM      6  C   UNL d   1      47.404  24.108   9.714  0.00  0.00     0.345 C 
ATOM      7  N   UNL d   1      46.697  25.244   9.148  0.00  0.00     0.619 N 
ENDBRANCH   5   6
ENDBRANCH   4   5
ENDBRANCH   3   4
ENDBRANCH   2   3
ENDBRANCH   1   2
BRANCH   1   8
ATOM      8  C   UNL d   1      50.588  21.431   9.109  0.00  0.00     0.032 C 
BRANCH   8   9
ATOM      9  C   UNL d   1      50.193  22.872   9.496  0.00  0.00     0.120 C 
BRANCH   9  10
ATOM     10  N   UNL d   1      51.294  23.802   9.729  0.00  0.00    -0.295 NA
BRANCH  10  11
ATOM     11  C   UNL d   1      52.626  23.448   9.305  0.00  0.00     0.122 C 
BRANCH  11  12
ATOM     12  C   UNL d   1      53.612  24.562   9.373  0.00  0.00     0.067 C 
BRANCH  12  13
ATOM     13  C   UNL d   1      54.551  24.333   8.165  0.00  0.00     0.340 C 
ATOM     14  N   UNL d   1      55.571  25.396   8.133  0.00  0.00     0.618 N 
ENDBRANCH  12  13
ENDBRANCH  11  12
ENDBRANCH  10  11
ENDBRANCH   9  10
ENDBRANCH   8   9
ENDBRANCH   1   8
TORSDOF 11
