@<TRIPOS>MOLECULE
4NFO_SPM_C_101
 14 13 0 0 0
SMALL
GASTEIGER
****
Coordinates from PDB:4NFO:C:101 Model:1 without hydrogens
@<TRIPOS>ATOM
      1 N          46.6970   25.2440    9.1480 N.3     1  UNL1       -0.1313
      2 C          47.4040   24.1080    9.7140 C.3     1  UNL1        0.1108
      3 C          46.4870   23.1770   10.5510 C.3     1  UNL1        0.0393
      4 C          47.1920   22.3520   11.6260 C.3     1  UNL1        0.0902
      5 N          47.8390   21.0530   11.3320 N.3     1  UNL1       -0.2180
      6 C          48.3850   20.6580   10.0010 C.3     1  UNL1        0.0887
      7 C          49.8750   20.2550    9.7570 C.3     1  UNL1        0.0203
      8 C          50.5880   21.4310    9.1090 C.3     1  UNL1        0.0203
      9 C          50.1930   22.8720    9.4960 C.3     1  UNL1        0.0887
     10 N          51.2940   23.8020    9.7290 N.3     1  UNL1       -0.2180
     11 C          52.6260   23.4480    9.3050 C.3     1  UNL1        0.0902
     12 C          53.6120   24.5620    9.3730 C.3     1  UNL1        0.0393
     13 C          54.5510   24.3330    8.1650 C.3     1  UNL1        0.1108
     14 N          55.5710   25.3960    8.1330 N.3     1  UNL1       -0.1313
@<TRIPOS>BOND
     1     1     2    1
     2     2     3    1
     3     3     4    1
     4     4     5    1
     5     5     6    1
     6     6     7    1
     7     7     8    1
     8     8     9    1
     9     9    10    1
    10    10    11    1
    11    11    12    1
    12    12    13    1
    13    13    14    1
