4NFO_SPM_C_101
 OpenBabel10091713583D
Coordinates from PDB:4NFO:C:101 Model:1 without hydrogens
 40 39  0  0  0  0  0  0  0  0999 V2000
   46.6970   25.2440    9.1480 N   0  0  0  0  0  0  0  0  0  0  0  0
   47.4040   24.1080    9.7140 C   0  0  0  0  0  0  0  0  0  0  0  0
   46.4870   23.1770   10.5510 C   0  0  0  0  0  0  0  0  0  0  0  0
   47.1920   22.3520   11.6260 C   0  0  0  0  0  0  0  0  0  0  0  0
   47.8390   21.0530   11.3320 N   0  0  0  0  0  0  0  0  0  0  0  0
   48.3850   20.6580   10.0010 C   0  0  0  0  0  0  0  0  0  0  0  0
   49.8750   20.2550    9.7570 C   0  0  0  0  0  0  0  0  0  0  0  0
   50.5880   21.4310    9.1090 C   0  0  0  0  0  0  0  0  0  0  0  0
   50.1930   22.8720    9.4960 C   0  0  0  0  0  0  0  0  0  0  0  0
   51.2940   23.8020    9.7290 N   0  0  0  0  0  0  0  0  0  0  0  0
   52.6260   23.4480    9.3050 C   0  0  0  0  0  0  0  0  0  0  0  0
   53.6120   24.5620    9.3730 C   0  0  0  0  0  0  0  0  0  0  0  0
   54.5510   24.3330    8.1650 C   0  0  0  0  0  0  0  0  0  0  0  0
   55.5710   25.3960    8.1330 N   0  0  0  0  0  0  0  0  0  0  0  0
   47.3484   25.8168    8.6113 H   0  0  0  0  0  0  0  0  0  0  0  0
   46.2933   25.8023    9.9001 H   0  0  0  0  0  0  0  0  0  0  0  0
   48.1860   24.4739   10.3460 H   0  0  0  0  0  0  0  0  0  0  0  0
   47.7860   23.5307    8.8981 H   0  0  0  0  0  0  0  0  0  0  0  0
   46.0043   22.4987    9.8788 H   0  0  0  0  0  0  0  0  0  0  0  0
   45.8111   23.8222   11.0723 H   0  0  0  0  0  0  0  0  0  0  0  0
   46.4580   22.1552   12.3793 H   0  0  0  0  0  0  0  0  0  0  0  0
   48.0338   22.9694   11.8610 H   0  0  0  0  0  0  0  0  0  0  0  0
   47.1444   20.3430   11.5641 H   0  0  0  0  0  0  0  0  0  0  0  0
   48.1981   21.4879    9.3520 H   0  0  0  0  0  0  0  0  0  0  0  0
   47.8910   19.7216    9.8461 H   0  0  0  0  0  0  0  0  0  0  0  0
   49.9183   19.4043    9.1094 H   0  0  0  0  0  0  0  0  0  0  0  0
   50.3456   20.0045   10.6847 H   0  0  0  0  0  0  0  0  0  0  0  0
   50.4385   21.3411    8.0533 H   0  0  0  0  0  0  0  0  0  0  0  0
   51.5919   21.3427    9.4685 H   0  0  0  0  0  0  0  0  0  0  0  0
   49.6129   22.8215   10.3937 H   0  0  0  0  0  0  0  0  0  0  0  0
   49.6642   23.2605    8.6509 H   0  0  0  0  0  0  0  0  0  0  0  0
   51.3366   23.9648   10.7350 H   0  0  0  0  0  0  0  0  0  0  0  0
   52.5750   23.1082    8.2917 H   0  0  0  0  0  0  0  0  0  0  0  0
   52.9708   22.6945    9.9820 H   0  0  0  0  0  0  0  0  0  0  0  0
   54.1616   24.5234   10.2902 H   0  0  0  0  0  0  0  0  0  0  0  0
   53.1399   25.5217    9.3413 H   0  0  0  0  0  0  0  0  0  0  0  0
   53.9812   24.3570    7.2597 H   0  0  0  0  0  0  0  0  0  0  0  0
   55.0289   23.3802    8.2579 H   0  0  0  0  0  0  0  0  0  0  0  0
   55.1137   26.3034    8.0444 H   0  0  0  0  0  0  0  0  0  0  0  0
   56.1909   25.2485    7.3366 H   0  0  0  0  0  0  0  0  0  0  0  0
  1  2  1  0  0  0  0
  1 15  1  0  0  0  0
  1 16  1  0  0  0  0
  2  3  1  0  0  0  0
  2 17  1  0  0  0  0
  2 18  1  0  0  0  0
  3  4  1  0  0  0  0
  3 19  1  0  0  0  0
  3 20  1  0  0  0  0
  4  5  1  0  0  0  0
  4 21  1  0  0  0  0
  4 22  1  0  0  0  0
  5  6  1  0  0  0  0
  5 23  1  0  0  0  0
  6  7  1  0  0  0  0
  6 24  1  0  0  0  0
  6 25  1  0  0  0  0
  7  8  1  0  0  0  0
  7 26  1  0  0  0  0
  7 27  1  0  0  0  0
  8  9  1  0  0  0  0
  8 28  1  0  0  0  0
  8 29  1  0  0  0  0
  9 10  1  0  0  0  0
  9 30  1  0  0  0  0
  9 31  1  0  0  0  0
 10 11  1  0  0  0  0
 10 32  1  0  0  0  0
 11 12  1  0  0  0  0
 11 33  1  0  0  0  0
 11 34  1  0  0  0  0
 12 13  1  0  0  0  0
 12 35  1  0  0  0  0
 12 36  1  0  0  0  0
 13 14  1  0  0  0  0
 13 37  1  0  0  0  0
 13 38  1  0  0  0  0
 14 39  1  0  0  0  0
 14 40  1  0  0  0  0
A    1
N1
A    2
C2
A    3
C3
A    4
C4
A    5
N5
A    6
C6
A    7
C7
A    8
C8
A    9
C9
A   10
N10
A   11
C11
A   12
C12
A   13
C13
A   14
N14
M  END
>  <InstanceId>
4NFO_SPM_C_101

>  <ChemCompId>
SPM

>  <PdbId>
4NFO

>  <ChainId>
C

>  <ResidueNumber>
101

>  <InsertionCode>


>  <Model>
1

>  <AltIds>


>  <MissingHeavyAtoms>
0

>  <ObservedFormula>
C10 N4

>  <Name>
SPERMINE

>  <SystematicName>
N,N'-bis(3-aminopropyl)butane-1,4-diamine

>  <Synonyms>


>  <Type>
NON-POLYMER

>  <Formula>
C10 H26 N4

>  <MolecularWeight>
202.34

>  <ModifiedDate>
2011-06-04

>  <Parent>


>  <OneLetterCode>


>  <SubcomponentList>


>  <AmbiguousFlag>
N

>  <InChI>
InChI=1S/C10H26N4/c11-5-3-9-13-7-1-2-8-14-10-4-6-12/h13-14H,1-12H2

>  <InChIKey>
PFNFFQXMRSDOHW-UHFFFAOYSA-N

>  <SMILES>
C(CCNCCCN)CNCCCN

$$$$
