@<TRIPOS>MOLECULE
ligand.pdb
 24 23 0 0 0
SMALL
GASTEIGER

@<TRIPOS>ATOM
      1 N           0.9666   -0.1450    0.2496 N.3     1  LYS1       -0.3184
      2 CA          2.4293   -0.0217    0.0959 C.3     1  LYS1        0.1032
      3 HA          2.9062   -0.3301    1.0339 H       1  LYS1        0.0574
      4 C           2.7796    1.4534   -0.1767 C.2     1  LYS1        0.3217
      5 O           2.8472    1.9686   -1.2821 O.2     1  LYS1       -0.2493
      6 OXT         2.9226    2.1734    0.9647 O.3     1  LYS1       -0.4795
      7 CB          2.9233   -0.9482   -1.0243 C.3     1  LYS1       -0.0273
      8 CG          4.4549   -0.9710   -1.1147 C.3     1  LYS1       -0.0500
      9 CD          4.9449   -1.9324   -2.1994 C.3     1  LYS1       -0.0406
     10 CE          6.4707   -1.9185   -2.2889 C.3     1  LYS1       -0.0069
     11 NZ          6.9304   -2.8351   -3.3235 N.3     1  LYS1       -0.3300
     12 H1          0.5306    0.0713   -0.6518 H       1  LYS1        0.1190
     13 H2          0.6142    0.5684    0.8883 H       1  LYS1        0.1190
     14 HXT         2.8084    1.6423    1.7766 H       1  LYS1        0.2951
     15 HB1         2.5064   -0.6386   -1.9913 H       1  LYS1        0.0286
     16 HB2         2.5663   -1.9693   -0.8356 H       1  LYS1        0.0286
     17 HG1         4.8735   -1.2713   -0.1459 H       1  LYS1        0.0266
     18 HG2         4.8323    0.0349   -1.3307 H       1  LYS1        0.0266
     19 HD1         4.5134   -1.6444   -3.1668 H       1  LYS1        0.0277
     20 HD2         4.5916   -2.9469   -1.9766 H       1  LYS1        0.0277
     21 HE1         6.9083   -2.2079   -1.3270 H       1  LYS1        0.0422
     22 HE2         6.8237   -0.9086   -2.5243 H       1  LYS1        0.0422
     23 HZ1         6.6410   -3.7850   -3.0978 H       1  LYS1        0.1182
     24 HZ2         7.9494   -2.8414   -3.3417 H       1  LYS1        0.1182
@<TRIPOS>BOND
     1     1    12    1
     2     1    13    1
     3     2     4    1
     4     2     7    1
     5     2     3    1
     6     2     1    1
     7     4     5    2
     8     4     6    1
     9     6    14    1
    10     7     8    1
    11     7    15    1
    12     7    16    1
    13     8     9    1
    14     8    17    1
    15     8    18    1
    16     9    10    1
    17     9    19    1
    18     9    20    1
    19    10    11    1
    20    10    21    1
    21    10    22    1
    22    11    23    1
    23    11    24    1
