@<TRIPOS>MOLECULE
2ET4_NMY_A_50
 88 91 0 0 0
SMALL
GASTEIGER

@<TRIPOS>ATOM
      1 C          -1.9211   -9.7653    1.7044 C.3     1  UNL1        0.1776
      2 H          -1.9649   -9.0342    2.5153 H       1  UNL1        0.0927
      3 O          -1.4639  -11.0125    2.2689 O.3     1  UNL1       -0.3422
      4 C          -0.1021  -10.9763    2.7683 C.3     1  UNL1        0.1055
      5 H           0.5546  -10.5856    1.9810 H       1  UNL1        0.0639
      6 C           0.0016  -10.0951    4.0425 C.3     1  UNL1        0.1166
      7 H          -0.4109   -9.1134    3.7979 H       1  UNL1        0.0650
      8 C          -0.8662  -10.7176    5.1674 C.3     1  UNL1        0.0990
      9 H          -0.8369  -10.0990    6.0670 H       1  UNL1        0.0636
     10 C          -0.3857  -12.1421    5.5356 C.3     1  UNL1        0.0351
     11 H          -1.1070  -12.5721    6.2371 H       1  UNL1        0.0485
     12 N           0.9233  -12.1808    6.2077 N.3     1  UNL1       -0.3250
     13 C          -0.3703  -13.0386    4.2877 C.3     1  UNL1       -0.0175
     14 C           0.3503  -12.4449    3.0575 C.3     1  UNL1        0.0355
     15 H           0.0587  -13.0666    2.2022 H       1  UNL1        0.0485
     16 N           1.8131  -12.5587    3.1728 N.3     1  UNL1       -0.3250
     17 O          -2.2546  -10.7337    4.7985 O.3     1  UNL1       -0.3876
     18 O           1.3840   -9.9013    4.4222 O.3     1  UNL1       -0.3402
     19 C           1.5020   -8.9318    5.4655 C.3     1  UNL1        0.1884
     20 H           0.9250   -9.2605    6.3325 H       1  UNL1        0.0938
     21 C           2.9349   -8.6892    5.9358 C.3     1  UNL1        0.1345
     22 H           3.6000   -8.5298    5.0797 H       1  UNL1        0.0671
     23 C           2.7189   -7.4024    6.7411 C.3     1  UNL1        0.1205
     24 H           3.6542   -6.8533    6.8830 H       1  UNL1        0.0651
     25 C           1.6602   -6.6706    5.8848 C.3     1  UNL1        0.1135
     26 H           0.8494   -6.2449    6.4741 H       1  UNL1        0.0647
     27 O           1.0323   -7.6568    5.0320 O.3     1  UNL1       -0.3405
     28 C           2.2693   -5.5815    5.0099 C.3     1  UNL1        0.0730
     29 O           3.2084   -6.1335    4.0884 O.3     1  UNL1       -0.3924
     30 O           2.2053   -7.7831    8.0420 O.3     1  UNL1       -0.3410
     31 C           2.1692   -6.6977    8.9861 C.3     1  UNL1        0.1776
     32 H           3.1772   -6.2627    9.0256 H       1  UNL1        0.0927
     33 C           1.7825   -7.2270   10.4023 C.3     1  UNL1        0.0853
     34 H           2.5495   -7.9404   10.7261 H       1  UNL1        0.0535
     35 C           1.7360   -6.0270   11.3868 C.3     1  UNL1        0.1033
     36 H           1.3260   -6.3787   12.3402 H       1  UNL1        0.0637
     37 C           0.8490   -4.8811   10.8632 C.3     1  UNL1        0.1100
     38 H           0.9679   -3.9907   11.4922 H       1  UNL1        0.0646
     39 C           1.2435   -4.5253    9.4141 C.3     1  UNL1        0.1022
     40 H           2.2583   -4.1035    9.4021 H       1  UNL1        0.0636
     41 O           1.2412   -5.6958    8.5838 O.3     1  UNL1       -0.3425
     42 C           0.2759   -3.4813    8.8143 C.3     1  UNL1        0.0222
     43 N           0.6637   -3.0523    7.4612 N.3     1  UNL1       -0.3276
     44 O          -0.5322   -5.2585   10.9190 O.3     1  UNL1       -0.3866
     45 O           3.0504   -5.5530   11.7051 O.3     1  UNL1       -0.3874
     46 N           0.4908   -7.9616   10.3862 N.3     1  UNL1       -0.3211
     47 O           3.4643   -9.7455    6.7234 O.3     1  UNL1       -0.3841
     48 C          -3.3889   -9.9196    1.1721 C.3     1  UNL1        0.0853
     49 H          -4.0324  -10.1077    2.0412 H       1  UNL1        0.0535
     50 N          -3.5714  -11.0821    0.2719 N.3     1  UNL1       -0.3211
     51 C          -3.8260   -8.6027    0.4808 C.3     1  UNL1        0.1033
     52 H          -4.7641   -8.7938   -0.0585 H       1  UNL1        0.0637
     53 O          -4.1419   -7.5572    1.4043 O.3     1  UNL1       -0.3874
     54 C          -2.7780   -8.1075   -0.5303 C.3     1  UNL1        0.1100
     55 H          -3.0439   -7.1122   -0.9063 H       1  UNL1        0.0646
     56 O          -2.7432   -8.9912   -1.6625 O.3     1  UNL1       -0.3866
     57 C          -1.3655   -8.0568    0.0849 C.3     1  UNL1        0.1022
     58 H          -0.6496   -7.9524   -0.7408 H       1  UNL1        0.0636
     59 O          -1.0207   -9.3052    0.7051 O.3     1  UNL1       -0.3425
     60 C          -1.1527   -6.8455    1.0279 C.3     1  UNL1        0.0222
     61 N           0.2095   -6.7818    1.5738 N.3     1  UNL1       -0.3276
     62 H           0.8924  -11.6247    7.0624 H       1  UNL1        0.1185
     63 H           1.6359  -11.7315    5.6215 H       1  UNL1        0.1185
     64 H          -1.4123  -13.2478    4.0074 H       1  UNL1        0.0297
     65 H           0.0507  -14.0234    4.5402 H       1  UNL1        0.0297
     66 H           2.0524  -13.2985    3.8419 H       1  UNL1        0.1185
     67 H           2.2024  -11.6974    3.5567 H       1  UNL1        0.1185
     68 H          -2.3295  -11.2247    3.9541 H       1  UNL1        0.2100
     69 H           1.4954   -5.0721    4.4284 H       1  UNL1        0.0584
     70 H           2.7897   -4.8397    5.6240 H       1  UNL1        0.0584
     71 H           2.6656   -6.6027    3.4231 H       1  UNL1        0.2095
     72 H           0.2464   -2.5969    9.4620 H       1  UNL1        0.0448
     73 H          -0.7384   -3.8901    8.7511 H       1  UNL1        0.0448
     74 H           1.6111   -2.6876    7.4624 H       1  UNL1        0.1183
     75 H           0.0558   -2.2902    7.1710 H       1  UNL1        0.1183
     76 H          -0.7453   -5.5029   11.8368 H       1  UNL1        0.2100
     77 H           3.5097   -5.2483   10.9056 H       1  UNL1        0.2100
     78 H          -0.2052   -7.3550    9.9349 H       1  UNL1        0.1187
     79 H           0.1549   -8.1104   11.3354 H       1  UNL1        0.1187
     80 H           3.0585   -9.6501    7.6094 H       1  UNL1        0.2101
     81 H          -2.9433  -10.9599   -0.5298 H       1  UNL1        0.1187
     82 H          -4.5185  -11.0911   -0.1051 H       1  UNL1        0.1187
     83 H          -3.8382   -7.7864    2.3000 H       1  UNL1        0.2100
     84 H          -3.5805   -8.8830   -2.1470 H       1  UNL1        0.2100
     85 H          -1.3563   -5.9163    0.4839 H       1  UNL1        0.0448
     86 H          -1.8302   -6.8708    1.8831 H       1  UNL1        0.0448
     87 H           0.8750   -6.7574    0.7994 H       1  UNL1        0.1183
     88 H           0.4058   -7.6643    2.0520 H       1  UNL1        0.1183
@<TRIPOS>BOND
     1     1    48    1
     2     1    59    1
     3     1     3    1
     4     1     2    1
     5     3     4    1
     6     4     5    1
     7     4     6    1
     8     6     8    1
     9     6    18    1
    10     6     7    1
    11     8    10    1
    12     8    17    1
    13     8     9    1
    14    10    11    1
    15    10    12    1
    16    10    13    1
    17    12    62    1
    18    12    63    1
    19    13    14    1
    20    13    64    1
    21    13    65    1
    22    14    15    1
    23    14     4    1
    24    14    16    1
    25    16    66    1
    26    16    67    1
    27    17    68    1
    28    18    19    1
    29    19    20    1
    30    19    21    1
    31    19    27    1
    32    21    23    1
    33    21    47    1
    34    21    22    1
    35    23    24    1
    36    23    25    1
    37    23    30    1
    38    25    27    1
    39    25    28    1
    40    25    26    1
    41    28    29    1
    42    28    69    1
    43    28    70    1
    44    29    71    1
    45    31    41    1
    46    31    32    1
    47    31    30    1
    48    33    31    1
    49    33    46    1
    50    33    34    1
    51    35    33    1
    52    35    45    1
    53    35    36    1
    54    37    35    1
    55    37    38    1
    56    37    44    1
    57    39    37    1
    58    39    40    1
    59    39    41    1
    60    39    42    1
    61    42    43    1
    62    42    72    1
    63    42    73    1
    64    43    74    1
    65    43    75    1
    66    44    76    1
    67    45    77    1
    68    46    78    1
    69    46    79    1
    70    47    80    1
    71    48    51    1
    72    48    50    1
    73    48    49    1
    74    50    81    1
    75    50    82    1
    76    51    54    1
    77    51    53    1
    78    51    52    1
    79    53    83    1
    80    54    55    1
    81    54    56    1
    82    54    57    1
    83    56    84    1
    84    57    59    1
    85    57    60    1
    86    57    58    1
    87    60    61    1
    88    60    85    1
    89    60    86    1
    90    61    87    1
    91    61    88    1
