REMARK  22 active torsions:
REMARK  status: ('A' for Active; 'I' for Inactive)
REMARK    1  A    between atoms: C_1  and  O_2 
REMARK    2  A    between atoms: O_2  and  C_3 
REMARK    3  A    between atoms: C_4  and  O_12 
REMARK    4  A    between atoms: C_5  and  O_11 
REMARK    5  A    between atoms: C_6  and  N_7 
REMARK    6  A    between atoms: C_9  and  N_10 
REMARK    7  A    between atoms: O_12  and  C_13 
REMARK    8  A    between atoms: C_14  and  O_32 
REMARK    9  A    between atoms: C_15  and  O_20 
REMARK   10  A    between atoms: C_16  and  C_18 
REMARK   11  A    between atoms: C_18  and  O_19 
REMARK   12  A    between atoms: C_21  and  O_20 
REMARK   13  A    between atoms: C_22  and  N_31 
REMARK   14  A    between atoms: C_23  and  O_30 
REMARK   15  A    between atoms: C_24  and  O_29 
REMARK   16  A    between atoms: C_25  and  C_27 
REMARK   17  A    between atoms: C_27  and  N_28 
REMARK   18  A    between atoms: C_33  and  N_34 
REMARK   19  A    between atoms: C_35  and  O_36 
REMARK   20  A    between atoms: C_37  and  O_38 
REMARK   21  A    between atoms: C_39  and  C_41 
REMARK   22  A    between atoms: C_41  and  N_42 
ROOT
ATOM      1  C   UNL d   1      -0.102 -10.976   2.768  0.00  0.00     0.189 C 
ATOM      2  C   UNL d   1       0.002 -10.095   4.043  0.00  0.00     0.186 C 
ATOM      3  C   UNL d   1      -0.866 -10.718   5.167  0.00  0.00     0.182 C 
ATOM      4  C   UNL d   1      -0.386 -12.142   5.536  0.00  0.00     0.251 C 
ATOM      5  C   UNL d   1      -0.370 -13.039   4.288  0.00  0.00     0.076 C 
ATOM      6  C   UNL d   1       0.350 -12.445   3.058  0.00  0.00     0.251 C 
ENDROOT
BRANCH   2   7
ATOM      7  O   UNL d   1       1.384  -9.901   4.422  0.00  0.00    -0.348 OA
BRANCH   7   8
ATOM      8  C   UNL d   1       1.502  -8.932   5.465  0.00  0.00     0.292 C 
ATOM      9  C   UNL d   1       2.935  -8.689   5.936  0.00  0.00     0.205 C 
ATOM     10  C   UNL d   1       2.719  -7.402   6.741  0.00  0.00     0.189 C 
ATOM     11  C   UNL d   1       1.660  -6.671   5.885  0.00  0.00     0.180 C 
ATOM     12  O   UNL d   1       1.032  -7.657   5.032  0.00  0.00    -0.348 OA
BRANCH   9  13
ATOM     13  O   UNL d   1       3.464  -9.745   6.723  0.00  0.00    -0.388 OA
ATOM     14  H   UNL d   1       3.058  -9.650   7.609  0.00  0.00     0.210 HD
ENDBRANCH   9  13
BRANCH  10  15
ATOM     15  O   UNL d   1       2.205  -7.783   8.042  0.00  0.00    -0.348 OA
BRANCH  15  16
ATOM     16  C   UNL d   1       2.169  -6.698   8.986  0.00  0.00     0.296 C 
ATOM     17  O   UNL d   1       1.241  -5.696   8.584  0.00  0.00    -0.349 OA
ATOM     18  C   UNL d   1       1.244  -4.525   9.414  0.00  0.00     0.183 C 
ATOM     19  C   UNL d   1       0.849  -4.881  10.863  0.00  0.00     0.179 C 
ATOM     20  C   UNL d   1       1.736  -6.027  11.387  0.00  0.00     0.187 C 
ATOM     21  C   UNL d   1       1.782  -7.227  10.402  0.00  0.00     0.303 C 
BRANCH  18  22
ATOM     22  C   UNL d   1       0.276  -3.481   8.814  0.00  0.00     0.301 C 
BRANCH  22  23
ATOM     23  N   UNL d   1       0.664  -3.052   7.461  0.00  0.00     0.080 N 
ATOM     24  H   UNL d   1       1.611  -2.688   7.462  0.00  0.00     0.312 HD
ATOM     25  H   UNL d   1       0.056  -2.290   7.171  0.00  0.00     0.312 HD
ENDBRANCH  22  23
ENDBRANCH  18  22
BRANCH  19  26
ATOM     26  O   UNL d   1      -0.532  -5.258  10.919  0.00  0.00    -0.390 OA
ATOM     27  H   UNL d   1      -0.745  -5.503  11.837  0.00  0.00     0.210 HD
ENDBRANCH  19  26
BRANCH  20  28
ATOM     28  O   UNL d   1       3.050  -5.553  11.705  0.00  0.00    -0.391 OA
ATOM     29  H   UNL d   1       3.510  -5.248  10.906  0.00  0.00     0.210 HD
ENDBRANCH  20  28
BRANCH  21  30
ATOM     30  N   UNL d   1       0.491  -7.962  10.386  0.00  0.00     0.090 N 
ATOM     31  H   UNL d   1      -0.205  -7.355   9.935  0.00  0.00     0.313 HD
ATOM     32  H   UNL d   1       0.155  -8.110  11.335  0.00  0.00     0.313 HD
ENDBRANCH  21  30
ENDBRANCH  15  16
ENDBRANCH  10  15
BRANCH  11  33
ATOM     33  C   UNL d   1       2.269  -5.582   5.010  0.00  0.00     0.198 C 
BRANCH  33  34
ATOM     34  O   UNL d   1       3.208  -6.133   4.088  0.00  0.00    -0.398 OA
ATOM     35  H   UNL d   1       2.666  -6.603   3.423  0.00  0.00     0.209 HD
ENDBRANCH  33  34
ENDBRANCH  11  33
ENDBRANCH   7   8
ENDBRANCH   2   7
BRANCH   1  36
ATOM     36  O   UNL d   1      -1.464 -11.012   2.269  0.00  0.00    -0.349 OA
BRANCH  36  37
ATOM     37  C   UNL d   1      -1.921  -9.765   1.704  0.00  0.00     0.296 C 
ATOM     38  C   UNL d   1      -3.389  -9.920   1.172  0.00  0.00     0.303 C 
ATOM     39  C   UNL d   1      -3.826  -8.603   0.481  0.00  0.00     0.187 C 
ATOM     40  C   UNL d   1      -2.778  -8.107  -0.530  0.00  0.00     0.179 C 
ATOM     41  C   UNL d   1      -1.365  -8.057   0.085  0.00  0.00     0.183 C 
ATOM     42  O   UNL d   1      -1.021  -9.305   0.705  0.00  0.00    -0.349 OA
BRANCH  38  43
ATOM     43  N   UNL d   1      -3.571 -11.082   0.272  0.00  0.00     0.090 N 
ATOM     44  H   UNL d   1      -2.943 -10.960  -0.530  0.00  0.00     0.313 HD
ATOM     45  H   UNL d   1      -4.519 -11.091  -0.105  0.00  0.00     0.313 HD
ENDBRANCH  38  43
BRANCH  39  46
ATOM     46  O   UNL d   1      -4.142  -7.557   1.404  0.00  0.00    -0.391 OA
ATOM     47  H   UNL d   1      -3.838  -7.786   2.300  0.00  0.00     0.210 HD
ENDBRANCH  39  46
BRANCH  40  48
ATOM     48  O   UNL d   1      -2.743  -8.991  -1.663  0.00  0.00    -0.390 OA
ATOM     49  H   UNL d   1      -3.580  -8.883  -2.147  0.00  0.00     0.210 HD
ENDBRANCH  40  48
BRANCH  41  50
ATOM     50  C   UNL d   1      -1.153  -6.846   1.028  0.00  0.00     0.301 C 
BRANCH  50  51
ATOM     51  N   UNL d   1       0.209  -6.782   1.574  0.00  0.00     0.080 N 
ATOM     52  H   UNL d   1       0.875  -6.757   0.799  0.00  0.00     0.312 HD
ATOM     53  H   UNL d   1       0.406  -7.664   2.052  0.00  0.00     0.312 HD
ENDBRANCH  50  51
ENDBRANCH  41  50
ENDBRANCH  36  37
ENDBRANCH   1  36
BRANCH   3  54
ATOM     54  O   UNL d   1      -2.255 -10.734   4.798  0.00  0.00    -0.391 OA
ATOM     55  H   UNL d   1      -2.329 -11.225   3.954  0.00  0.00     0.210 HD
ENDBRANCH   3  54
BRANCH   6  56
ATOM     56  N   UNL d   1       1.813 -12.559   3.173  0.00  0.00     0.085 N 
ATOM     57  H   UNL d   1       2.052 -13.299   3.842  0.00  0.00     0.313 HD
ATOM     58  H   UNL d   1       2.202 -11.697   3.557  0.00  0.00     0.313 HD
ENDBRANCH   6  56
BRANCH   4  59
ATOM     59  N   UNL d   1       0.923 -12.181   6.208  0.00  0.00     0.085 N 
ATOM     60  H   UNL d   1       0.892 -11.625   7.062  0.00  0.00     0.313 HD
ATOM     61  H   UNL d   1       1.636 -11.732   5.622  0.00  0.00     0.313 HD
ENDBRANCH   4  59
TORSDOF 22
