@<TRIPOS>MOLECULE
2EES_HPA_A_90
 14 15 0 0 0
SMALL
GASTEIGER

@<TRIPOS>ATOM
      1 N          -1.7568    0.8751    0.1437 N.ar    1  UNL1       -0.3116
      2 H          -2.4680    1.5893    0.1742 H       1  UNL1        0.1698
      3 C          -2.0676   -0.4627    0.3038 C.ar    1  UNL1        0.0985
      4 N          -1.2400   -1.4611    0.2654 N.ar    1  UNL1       -0.2163
      5 C           0.0923   -1.0707    0.0850 C.ar    1  UNL1        0.1844
      6 C           0.4383    0.2397   -0.0829 C.ar    1  UNL1        0.1501
      7 C          -0.4747    1.3148   -0.0591 C.ar    1  UNL1        0.2770
      8 O          -0.1709    2.4926   -0.1984 O.2     1  UNL1       -0.2655
      9 N           1.7853    0.2563   -0.2603 N.ar    1  UNL1       -0.3389
     10 H           2.3548    1.0862   -0.3581 H       1  UNL1        0.1670
     11 C           2.2099   -1.0415   -0.1623 C.ar    1  UNL1        0.0963
     12 N           1.1961   -1.8722   -0.0042 N.ar    1  UNL1       -0.2164
     13 H          -3.1486   -0.6323    0.4532 H       1  UNL1        0.1028
     14 H           3.2498   -1.3135   -0.3001 H       1  UNL1        0.1027
@<TRIPOS>BOND
     1     1     2    1
     2     3     1   ar
     3     4     3   ar
     4     5     4   ar
     5     6     5   ar
     6     7     6   ar
     7     7     1   ar
     8     8     7    2
     9     9     6   ar
    10     9    10    1
    11    11     9   ar
    12    12    11   ar
    13    12     5   ar
    14     3    13    1
    15    11    14    1
