3RKF_DX4_A_91
 OpenBabel10091713583D
Coordinates from PDB:3RKF:A:91 Model:1 without hydrogens
 11 12  0  0  0  0  0  0  0  0999 V2000
   16.8130  -24.9880  -14.2450 C   0  0  0  0  0  0  0  0  0  0  0  0
   17.1140  -23.7860  -13.6620 C   0  0  0  0  0  0  0  0  0  0  0  0
   16.0510  -22.9720  -13.1520 C   0  0  0  0  0  0  0  0  0  0  0  0
   19.0070  -24.7220  -14.3120 C   0  0  0  0  0  0  0  0  0  0  0  0
   14.7880  -23.4280  -13.2660 N   0  0  0  0  0  0  0  0  0  0  0  0
   13.1640  -25.0530  -13.9410 N   0  0  0  0  0  0  0  0  0  0  0  0
   15.4960  -25.3950  -14.3290 N   0  0  0  0  0  0  0  0  0  0  0  0
   14.5220  -24.6140  -13.8430 C   0  0  0  0  0  0  0  0  0  0  0  0
   17.9980  -25.5690  -14.6510 N   0  0  0  0  0  0  0  0  0  0  0  0
   18.4780  -23.6270  -13.7060 N   0  0  0  0  0  0  0  0  0  0  0  0
   16.3800  -21.4140  -12.3950 S   0  0  0  0  0  0  0  0  0  0  0  0
  1  2  2  0  0  0  0
  1  7  1  0  0  0  0
  1  9  1  0  0  0  0
  2  3  1  0  0  0  0
  2 10  1  0  0  0  0
  3  5  1  0  0  0  0
  3 11  2  0  0  0  0
  4  9  1  0  0  0  0
  4 10  2  0  0  0  0
  5  8  1  0  0  0  0
  6  8  1  0  0  0  0
  7  8  2  0  0  0  0
A    1
C4
A    2
C5
A    3
C6
A    4
C8
A    5
N1
A    6
N2
A    7
N3
A    8
C2
A    9
N9
A   10
N7
A   11
S6
M  END
>  <InstanceId>
3RKF_DX4_A_91

>  <ChemCompId>
DX4

>  <PdbId>
3RKF

>  <ChainId>
A

>  <ResidueNumber>
91

>  <InsertionCode>


>  <Model>
1

>  <AltIds>


>  <MissingHeavyAtoms>
0

>  <ObservedFormula>
C5 N5 S

>  <Name>
2-amino-1,9-dihydro-6H-purine-6-thione

>  <SystematicName>
2-amino-1,9-dihydropurine-6-thione

>  <Synonyms>


>  <Type>
NON-POLYMER

>  <Formula>
C5 H5 N5 S

>  <MolecularWeight>
167.192

>  <ModifiedDate>
2011-06-04

>  <Parent>


>  <OneLetterCode>


>  <SubcomponentList>


>  <AmbiguousFlag>
N

>  <InChI>
InChI=1S/C5H5N5S/c6-5-9-3-2(4(11)10-5)7-1-8-3/h1H,(H4,6,7,8,9,10,11)

>  <InChIKey>
WYWHKKSPHMUBEB-UHFFFAOYSA-N

>  <SMILES>
c1[nH]c2c(n1)C(=S)NC(=N2)N

$$$$
