untitled
 OpenBabel10091713583D

 14 15  0  0  1  0  0  0  0  0999 V2000
   14.7880  -23.4280  -13.2660 N   0  0  0  0  0  0  0  0  0  0  0  0
   14.5220  -24.6140  -13.8430 C   0  0  0  0  0  0  0  0  0  0  0  0
   13.1640  -25.0530  -13.9410 N   0  0  0  0  0  0  0  0  0  0  0  0
   15.4960  -25.3950  -14.3290 N   0  0  0  0  0  0  0  0  0  0  0  0
   16.8130  -24.9880  -14.2450 C   0  0  0  0  0  0  0  0  0  0  0  0
   17.1140  -23.7860  -13.6620 C   0  0  0  0  0  0  0  0  0  0  0  0
   16.0510  -22.9720  -13.1520 C   0  0  1  0  0  3  0  0  0  0  0  0
   16.3800  -21.4140  -12.3950 S   0  0  0  0  0  0  0  0  0  0  0  0
   18.4780  -23.6270  -13.7060 N   0  0  0  0  0  0  0  0  0  0  0  0
   19.0070  -24.7220  -14.3120 C   0  0  0  0  0  3  0  0  0  0  0  0
   17.9980  -25.5690  -14.6510 N   0  0  0  0  0  0  0  0  0  0  0  0
   12.4378  -24.4895  -13.5882 H   0  0  0  0  0  0  0  0  0  0  0  0
   12.9556  -25.9186  -14.3612 H   0  0  0  0  0  0  0  0  0  0  0  0
   17.7199  -21.1811  -12.4008 H   0  0  0  0  0  0  0  0  0  0  0  0
  1  2  2  0  0  0  0
  3  2  1  0  0  0  0
  3 12  1  0  0  0  0
  3 13  1  0  0  0  0
  4  2  1  0  0  0  0
  5  4  2  0  0  0  0
  5  6  1  0  0  0  0
  5 11  1  0  0  0  0
  6  7  1  0  0  0  0
  6  9  2  0  0  0  0
  7  1  1  0  0  0  0
  7  8  1  6  0  0  0
  8 14  1  0  0  0  0
 10  9  1  0  0  0  0
 10 11  2  0  0  0  0
M  END
$$$$
