@<TRIPOS>MOLECULE
3RKF_DX4_A_91
 11 12 0 0 0
SMALL
GASTEIGER
****
Coordinates from PDB:3RKF:A:91 Model:1 without hydrogens
@<TRIPOS>ATOM
      1 C          16.8130  -24.9880  -14.2450 C.ar    1  UNL1        0.1865
      2 C          17.1140  -23.7860  -13.6620 C.ar    1  UNL1        0.1430
      3 C          16.0510  -22.9720  -13.1520 C.ar    1  UNL1        0.1403
      4 C          19.0070  -24.7220  -14.3120 C.ar    1  UNL1        0.2004
      5 N          14.7880  -23.4280  -13.2660 N.ar    1  UNL1       -0.2023
      6 N          13.1640  -25.0530  -13.9410 N.pl3   1  UNL1       -0.0860
      7 N          15.4960  -25.3950  -14.3290 N.ar    1  UNL1       -0.1903
      8 C          14.5220  -24.6140  -13.8430 C.ar    1  UNL1        0.2585
      9 N          17.9980  -25.5690  -14.6510 N.ar    1  UNL1       -0.2032
     10 N          18.4780  -23.6270  -13.7060 N.ar    1  UNL1       -0.2188
     11 S          16.3800  -21.4140  -12.3950 S.2     1  UNL1       -0.0283
@<TRIPOS>BOND
     1     1     2   ar
     2     1     7   ar
     3     1     9   ar
     4     2     3   ar
     5     2    10   ar
     6     3     5   ar
     7     3    11    2
     8     4     9   ar
     9     4    10   ar
    10     5     8   ar
    11     6     8    1
    12     7     8   ar
