2O3V_N33_A_50
 OpenBabel03221817253D

 73 75  0  0  1  0  0  0  0  0999 V2000
    1.5504    4.4829   -1.6377 C   0  0  2  0  0  0  0  0  0  0  0  0
    2.3823    3.9375   -2.0923 H   0  0  0  0  0  0  0  0  0  0  0  0
    2.0859    5.5837   -0.8638 O   0  0  0  0  0  0  0  0  0  0  0  0
    2.8967    5.3202    0.3086 C   0  0  2  0  0  0  0  0  0  0  0  0
    3.2275    6.3221    0.6139 H   0  0  0  0  0  0  0  0  0  0  0  0
    4.1876    4.5332   -0.0645 C   0  0  2  0  0  0  0  0  0  0  0  0
    3.9431    3.7789   -0.8145 H   0  0  0  0  0  0  0  0  0  0  0  0
    4.8757    3.7999    1.0894 C   0  0  0  0  0  0  0  0  0  0  0  0
    3.8423    3.0393    1.9083 C   0  0  1  0  0  0  0  0  0  0  0  0
    3.2437    2.3870    1.2609 H   0  0  0  0  0  0  0  0  0  0  0  0
    4.4630    2.1734    2.9285 N   0  0  0  0  0  0  0  0  0  0  0  0
    2.9296    4.0723    2.5797 C   0  0  1  0  0  0  0  0  0  0  0  0
    3.5136    4.7892    3.1723 H   0  0  0  0  0  0  0  0  0  0  0  0
    2.0842    4.8059    1.5331 C   0  0  1  0  0  0  0  0  0  0  0  0
    1.2602    4.1633    1.2381 H   0  0  0  0  0  0  0  0  0  0  0  0
    1.4430    5.9127    2.2060 O   0  0  0  0  0  0  0  0  0  0  0  0
    2.0563    3.4119    3.5121 O   0  0  0  0  0  0  0  0  0  0  0  0
    5.1770    5.4351   -0.6867 N   0  0  0  0  0  0  0  0  0  0  0  0
    0.6884    5.0875   -2.8084 C   0  0  2  0  0  0  0  0  0  0  0  0
    1.3724    5.6342   -3.4686 H   0  0  0  0  0  0  0  0  0  0  0  0
   -0.2860    6.0957   -2.3241 N   0  0  0  0  0  0  0  0  0  0  0  0
    0.0176    3.9285   -3.6132 C   0  0  1  0  0  0  0  0  0  0  0  0
   -0.6498    4.3807   -4.3552 H   0  0  0  0  0  0  0  0  0  0  0  0
    1.0519    3.2352   -4.3422 O   0  0  0  0  0  0  0  0  0  0  0  0
    0.7052    2.0767   -5.0979 C   0  0  0  0  0  0  0  0  0  0  0  0
   -0.1831    2.2264   -6.1922 O   0  0  0  0  0  0  0  0  0  0  0  0
    0.2681    2.8825   -7.3995 C   0  0  2  0  0  0  0  0  0  0  0  0
   -0.5409    2.6722   -8.1114 H   0  0  0  0  0  0  0  0  0  0  0  0
    1.5813    2.3306   -8.0445 C   0  0  2  0  0  0  0  0  0  0  0  0
    2.3799    2.3069   -7.2967 H   0  0  0  0  0  0  0  0  0  0  0  0
    2.0367    3.2588   -9.2060 C   0  0  1  0  0  0  0  0  0  0  0  0
    3.0297    2.9541   -9.5549 H   0  0  0  0  0  0  0  0  0  0  0  0
    1.1547    3.1284  -10.3153 O   0  0  0  0  0  0  0  0  0  0  0  0
    2.1408    4.6049   -8.7759 O   0  0  0  0  0  0  0  0  0  0  0  0
    0.8821    5.1598   -8.3803 C   0  0  1  0  0  0  0  0  0  0  0  0
    0.1973    5.1496   -9.2458 H   0  0  0  0  0  0  0  0  0  0  0  0
    0.2799    4.4076   -7.1993 C   0  0  1  0  0  0  0  0  0  0  0  0
    0.8748    4.6423   -6.3068 H   0  0  0  0  0  0  0  0  0  0  0  0
   -1.0507    4.8745   -6.9380 O   0  0  0  0  0  0  0  0  0  0  0  0
    1.1437    6.6252   -8.0142 C   0  0  0  0  0  0  0  0  0  0  0  0
    1.7134    7.3070   -9.1350 O   0  0  0  0  0  0  0  0  0  0  0  0
    1.3939    0.9631   -8.5868 N   0  0  0  0  0  0  0  0  0  0  0  0
   -0.8232    3.0698   -2.6483 C   0  0  2  0  0  0  0  0  0  0  0  0
   -1.2500    2.2051   -3.1644 H   0  0  0  0  0  0  0  0  0  0  0  0
   -1.9605    3.8120   -2.1693 O   0  0  0  0  0  0  0  0  0  0  0  0
   -0.0224    2.5953   -1.4207 C   0  0  2  0  0  0  0  0  0  0  0  0
   -0.7383    2.3553   -0.6243 H   0  0  0  0  0  0  0  0  0  0  0  0
    0.7971    3.6015   -0.8175 O   0  0  0  0  0  0  0  0  0  0  0  0
    0.7351    1.2900   -1.7156 C   0  0  0  0  0  0  0  0  0  0  0  0
    1.3481    0.7329   -0.5573 O   0  0  0  0  0  0  0  0  0  0  0  0
    5.4208    4.5067    1.7313 H   0  0  0  0  0  0  0  0  0  0  0  0
    5.6259    3.1084    0.6819 H   0  0  0  0  0  0  0  0  0  0  0  0
    5.0740    2.7272    3.5272 H   0  0  0  0  0  0  0  0  0  0  0  0
    5.0727    1.5014    2.4595 H   0  0  0  0  0  0  0  0  0  0  0  0
    1.0376    5.5217    3.0046 H   0  0  0  0  0  0  0  0  0  0  0  0
    2.5757    2.6378    3.8185 H   0  0  0  0  0  0  0  0  0  0  0  0
    4.7050    6.0444   -1.3585 H   0  0  0  0  0  0  0  0  0  0  0  0
    5.8791    4.9046   -1.1963 H   0  0  0  0  0  0  0  0  0  0  0  0
   -0.7456    5.7161   -1.4875 H   0  0  0  0  0  0  0  0  0  0  0  0
   -1.0175    6.2628   -3.0075 H   0  0  0  0  0  0  0  0  0  0  0  0
    0.2522    1.3383   -4.4336 H   0  0  0  0  0  0  0  0  0  0  0  0
    1.6379    1.6130   -5.4296 H   0  0  0  0  0  0  0  0  0  0  0  0
    0.7850    2.2268  -10.2449 H   0  0  0  0  0  0  0  0  0  0  0  0
   -1.6056    4.6353   -7.7028 H   0  0  0  0  0  0  0  0  0  0  0  0
    1.8636    6.6942   -7.1913 H   0  0  0  0  0  0  0  0  0  0  0  0
    0.2233    7.1402   -7.7264 H   0  0  0  0  0  0  0  0  0  0  0  0
    2.3856    6.6944   -9.4921 H   0  0  0  0  0  0  0  0  0  0  0  0
    1.2773    0.2960   -7.8212 H   0  0  0  0  0  0  0  0  0  0  0  0
    2.2348    0.6667   -9.0869 H   0  0  0  0  0  0  0  0  0  0  0  0
   -2.4667    4.1246   -2.9398 H   0  0  0  0  0  0  0  0  0  0  0  0
    0.0357    0.5379   -2.1038 H   0  0  0  0  0  0  0  0  0  0  0  0
    1.5269    1.4364   -2.4506 H   0  0  0  0  0  0  0  0  0  0  0  0
    0.6415    0.5059    0.0739 H   0  0  0  0  0  0  0  0  0  0  0  0
  1 48  1  0  0  0  0
  1  3  1  0  0  0  0
  1  2  1  6  0  0  0
  4  6  1  6  0  0  0
  4  5  1  0  0  0  0
  4  3  1  0  0  0  0
  6  7  1  6  0  0  0
  6  8  1  0  0  0  0
  6 18  1  0  0  0  0
  8  9  1  0  0  0  0
  8 51  1  0  0  0  0
  8 52  1  0  0  0  0
  9 12  1  1  0  0  0
  9 11  1  0  0  0  0
  9 10  1  0  0  0  0
 11 53  1  0  0  0  0
 11 54  1  0  0  0  0
 12 13  1  0  0  0  0
 12 14  1  6  0  0  0
 12 17  1  0  0  0  0
 14  4  1  6  0  0  0
 14 16  1  0  0  0  0
 14 15  1  0  0  0  0
 16 55  1  0  0  0  0
 17 56  1  0  0  0  0
 18 57  1  0  0  0  0
 18 58  1  0  0  0  0
 19  1  1  1  0  0  0
 19 21  1  0  0  0  0
 19 20  1  0  0  0  0
 21 59  1  0  0  0  0
 21 60  1  0  0  0  0
 22 19  1  1  0  0  0
 22 24  1  0  0  0  0
 22 23  1  0  0  0  0
 24 25  1  0  0  0  0
 25 26  1  0  0  0  0
 25 61  1  0  0  0  0
 25 62  1  0  0  0  0
 27 29  1  6  0  0  0
 27 28  1  0  0  0  0
 27 26  1  0  0  0  0
 29 30  1  0  0  0  0
 29 31  1  6  0  0  0
 29 42  1  0  0  0  0
 31 34  1  0  0  0  0
 31 33  1  0  0  0  0
 31 32  1  6  0  0  0
 33 63  1  0  0  0  0
 34 35  1  0  0  0  0
 35 36  1  0  0  0  0
 35 37  1  1  0  0  0
 35 40  1  0  0  0  0
 37 27  1  6  0  0  0
 37 39  1  0  0  0  0
 37 38  1  0  0  0  0
 39 64  1  0  0  0  0
 40 41  1  0  0  0  0
 40 65  1  0  0  0  0
 40 66  1  0  0  0  0
 41 67  1  0  0  0  0
 42 68  1  0  0  0  0
 42 69  1  0  0  0  0
 43 22  1  6  0  0  0
 43 44  1  0  0  0  0
 43 45  1  0  0  0  0
 45 70  1  0  0  0  0
 46 43  1  6  0  0  0
 46 48  1  0  0  0  0
 46 49  1  0  0  0  0
 46 47  1  0  0  0  0
 49 50  1  0  0  0  0
 49 71  1  0  0  0  0
 49 72  1  0  0  0  0
 50 73  1  0  0  0  0
M  END
$$$$
