REMARK  19 active torsions:
REMARK  status: ('A' for Active; 'I' for Inactive)
REMARK    1  A    between atoms: C_1  and  O_2 
REMARK    2  A    between atoms: C_3  and  O_2 
REMARK    3  A    between atoms: C_4  and  N_12 
REMARK    4  A    between atoms: C_6  and  N_7 
REMARK    5  A    between atoms: C_8  and  O_11 
REMARK    6  A    between atoms: C_9  and  O_10 
REMARK    7  A    between atoms: C_13  and  N_14 
REMARK    8  A    between atoms: C_15  and  O_16 
REMARK    9  A    between atoms: O_16  and  C_17 
REMARK   10  A    between atoms: C_17  and  O_18 
REMARK   11  A    between atoms: C_19  and  O_18 
REMARK   12  A    between atoms: C_20  and  N_29 
REMARK   13  A    between atoms: C_21  and  O_22 
REMARK   14  A    between atoms: C_24  and  C_27 
REMARK   15  A    between atoms: C_25  and  O_26 
REMARK   16  A    between atoms: C_27  and  O_28 
REMARK   17  A    between atoms: C_30  and  O_31 
REMARK   18  A    between atoms: C_32  and  C_34 
REMARK   19  A    between atoms: C_34  and  O_35 
ROOT
ATOM      1  C   UNL d   1       1.550   4.483  -1.638  0.00  0.00     0.296 C 
ATOM      2  C   UNL d   1       0.688   5.088  -2.808  0.00  0.00     0.303 C 
ATOM      3  C   UNL d   1       0.018   3.929  -3.613  0.00  0.00     0.193 C 
ATOM      4  C   UNL d   1      -0.823   3.070  -2.648  0.00  0.00     0.180 C 
ATOM      5  C   UNL d   1      -0.022   2.595  -1.421  0.00  0.00     0.179 C 
ATOM      6  O   UNL d   1       0.797   3.602  -0.818  0.00  0.00    -0.349 OA
ENDROOT
BRANCH   3   7
ATOM      7  O   UNL d   1       1.052   3.235  -4.342  0.00  0.00    -0.357 OA
BRANCH   7   8
ATOM      8  C   UNL d   1       0.705   2.077  -5.098  0.00  0.00     0.339 C 
BRANCH   8   9
ATOM      9  O   UNL d   1      -0.183   2.226  -6.192  0.00  0.00    -0.357 OA
BRANCH   9  10
ATOM     10  C   UNL d   1       0.268   2.882  -7.399  0.00  0.00     0.193 C 
ATOM     11  C   UNL d   1       1.581   2.331  -8.044  0.00  0.00     0.303 C 
ATOM     12  C   UNL d   1       2.037   3.259  -9.206  0.00  0.00     0.292 C 
ATOM     13  O   UNL d   1       2.141   4.605  -8.776  0.00  0.00    -0.349 OA
ATOM     14  C   UNL d   1       0.882   5.160  -8.380  0.00  0.00     0.179 C 
ATOM     15  C   UNL d   1       0.280   4.408  -7.199  0.00  0.00     0.180 C 
BRANCH  11  16
ATOM     16  N   UNL d   1       1.394   0.963  -8.587  0.00  0.00     0.090 N 
ATOM     17  H   UNL d   1       1.277   0.296  -7.821  0.00  0.00     0.313 HD
ATOM     18  H   UNL d   1       2.235   0.667  -9.087  0.00  0.00     0.313 HD
ENDBRANCH  11  16
BRANCH  12  19
ATOM     19  O   UNL d   1       1.155   3.128 -10.315  0.00  0.00    -0.369 OA
ATOM     20  H   UNL d   1       0.785   2.227 -10.245  0.00  0.00     0.212 HD
ENDBRANCH  12  19
BRANCH  14  21
ATOM     21  C   UNL d   1       1.144   6.625  -8.014  0.00  0.00     0.198 C 
BRANCH  21  22
ATOM     22  O   UNL d   1       1.713   7.307  -9.135  0.00  0.00    -0.398 OA
ATOM     23  H   UNL d   1       2.386   6.694  -9.492  0.00  0.00     0.209 HD
ENDBRANCH  21  22
ENDBRANCH  14  21
BRANCH  15  24
ATOM     24  O   UNL d   1      -1.051   4.875  -6.938  0.00  0.00    -0.390 OA
ATOM     25  H   UNL d   1      -1.606   4.635  -7.703  0.00  0.00     0.210 HD
ENDBRANCH  15  24
ENDBRANCH   9  10
ENDBRANCH   8   9
ENDBRANCH   7   8
ENDBRANCH   3   7
BRANCH   2  26
ATOM     26  N   UNL d   1      -0.286   6.096  -2.324  0.00  0.00     0.090 N 
ATOM     27  H   UNL d   1      -0.746   5.716  -1.488  0.00  0.00     0.313 HD
ATOM     28  H   UNL d   1      -1.018   6.263  -3.007  0.00  0.00     0.313 HD
ENDBRANCH   2  26
BRANCH   4  29
ATOM     29  O   UNL d   1      -1.960   3.812  -2.169  0.00  0.00    -0.390 OA
ATOM     30  H   UNL d   1      -2.467   4.125  -2.940  0.00  0.00     0.210 HD
ENDBRANCH   4  29
BRANCH   1  31
ATOM     31  O   UNL d   1       2.086   5.584  -0.864  0.00  0.00    -0.349 OA
BRANCH  31  32
ATOM     32  C   UNL d   1       2.897   5.320   0.309  0.00  0.00     0.189 C 
ATOM     33  C   UNL d   1       4.188   4.533  -0.065  0.00  0.00     0.251 C 
ATOM     34  C   UNL d   1       4.876   3.800   1.089  0.00  0.00     0.076 C 
ATOM     35  C   UNL d   1       3.842   3.039   1.908  0.00  0.00     0.251 C 
ATOM     36  C   UNL d   1       2.930   4.072   2.580  0.00  0.00     0.182 C 
ATOM     37  C   UNL d   1       2.084   4.806   1.533  0.00  0.00     0.180 C 
BRANCH  33  38
ATOM     38  N   UNL d   1       5.177   5.435  -0.687  0.00  0.00     0.085 N 
ATOM     39  H   UNL d   1       4.705   6.044  -1.359  0.00  0.00     0.313 HD
ATOM     40  H   UNL d   1       5.879   4.905  -1.196  0.00  0.00     0.313 HD
ENDBRANCH  33  38
BRANCH  35  41
ATOM     41  N   UNL d   1       4.463   2.173   2.929  0.00  0.00     0.085 N 
ATOM     42  H   UNL d   1       5.074   2.727   3.527  0.00  0.00     0.313 HD
ATOM     43  H   UNL d   1       5.073   1.501   2.459  0.00  0.00     0.313 HD
ENDBRANCH  35  41
BRANCH  36  44
ATOM     44  O   UNL d   1       2.056   3.412   3.512  0.00  0.00    -0.391 OA
ATOM     45  H   UNL d   1       2.576   2.638   3.818  0.00  0.00     0.210 HD
ENDBRANCH  36  44
BRANCH  37  46
ATOM     46  O   UNL d   1       1.443   5.913   2.206  0.00  0.00    -0.390 OA
ATOM     47  H   UNL d   1       1.038   5.522   3.005  0.00  0.00     0.210 HD
ENDBRANCH  37  46
ENDBRANCH  31  32
ENDBRANCH   1  31
BRANCH   5  48
ATOM     48  C   UNL d   1       0.735   1.290  -1.716  0.00  0.00     0.198 C 
BRANCH  48  49
ATOM     49  O   UNL d   1       1.348   0.733  -0.557  0.00  0.00    -0.398 OA
ATOM     50  H   UNL d   1       0.641   0.506   0.074  0.00  0.00     0.209 HD
ENDBRANCH  48  49
ENDBRANCH   5  48
TORSDOF 19
