@<TRIPOS>MOLECULE
2O3V_N33_A_50
 73 75 0 0 0
SMALL
GASTEIGER

@<TRIPOS>ATOM
      1 C           1.5504    4.4829   -1.6377 C.3     1  UNL1        0.1776
      2 H           2.3823    3.9375   -2.0923 H       1  UNL1        0.0927
      3 O           2.0859    5.5837   -0.8638 O.3     1  UNL1       -0.3422
      4 C           2.8967    5.3202    0.3086 C.3     1  UNL1        0.1051
      5 H           3.2275    6.3221    0.6139 H       1  UNL1        0.0639
      6 C           4.1876    4.5332   -0.0645 C.3     1  UNL1        0.0355
      7 H           3.9431    3.7789   -0.8145 H       1  UNL1        0.0485
      8 C           4.8757    3.7999    1.0894 C.3     1  UNL1       -0.0175
      9 C           3.8423    3.0393    1.9083 C.3     1  UNL1        0.0351
     10 H           3.2437    2.3870    1.2609 H       1  UNL1        0.0485
     11 N           4.4630    2.1734    2.9285 N.3     1  UNL1       -0.3250
     12 C           2.9296    4.0723    2.5797 C.3     1  UNL1        0.0986
     13 H           3.5136    4.7892    3.1723 H       1  UNL1        0.0635
     14 C           2.0842    4.8059    1.5331 C.3     1  UNL1        0.1101
     15 H           1.2602    4.1633    1.2381 H       1  UNL1        0.0646
     16 O           1.4430    5.9127    2.2060 O.3     1  UNL1       -0.3866
     17 O           2.0563    3.4119    3.5121 O.3     1  UNL1       -0.3876
     18 N           5.1770    5.4351   -0.6867 N.3     1  UNL1       -0.3250
     19 C           0.6884    5.0875   -2.8084 C.3     1  UNL1        0.0857
     20 H           1.3724    5.6342   -3.4686 H       1  UNL1        0.0535
     21 N          -0.2860    6.0957   -2.3241 N.3     1  UNL1       -0.3211
     22 C           0.0176    3.9285   -3.6132 C.3     1  UNL1        0.1094
     23 H          -0.6498    4.3807   -4.3552 H       1  UNL1        0.0641
     24 O           1.0519    3.2352   -4.3422 O.3     1  UNL1       -0.3465
     25 C           0.7052    2.0767   -5.0979 C.3     1  UNL1        0.1492
     26 O          -0.1831    2.2264   -6.1922 O.3     1  UNL1       -0.3465
     27 C           0.2681    2.8825   -7.3995 C.3     1  UNL1        0.1094
     28 H          -0.5409    2.6722   -8.1114 H       1  UNL1        0.0641
     29 C           1.5813    2.3306   -8.0445 C.3     1  UNL1        0.0855
     30 H           2.3799    2.3069   -7.2967 H       1  UNL1        0.0535
     31 C           2.0367    3.2588   -9.2060 C.3     1  UNL1        0.1744
     32 H           3.0297    2.9541   -9.5549 H       1  UNL1        0.0925
     33 O           1.1547    3.1284  -10.3153 O.3     1  UNL1       -0.3656
     34 O           2.1408    4.6049   -8.7759 O.3     1  UNL1       -0.3417
     35 C           0.8821    5.1598   -8.3803 C.3     1  UNL1        0.1129
     36 H           0.1973    5.1496   -9.2458 H       1  UNL1        0.0647
     37 C           0.2799    4.4076   -7.1993 C.3     1  UNL1        0.1113
     38 H           0.8748    4.6423   -6.3068 H       1  UNL1        0.0646
     39 O          -1.0507    4.8745   -6.9380 O.3     1  UNL1       -0.3865
     40 C           1.1437    6.6252   -8.0142 C.3     1  UNL1        0.0730
     41 O           1.7134    7.3070   -9.1350 O.3     1  UNL1       -0.3924
     42 N           1.3939    0.9631   -8.5868 N.3     1  UNL1       -0.3211
     43 C          -0.8232    3.0698   -2.6483 C.3     1  UNL1        0.1113
     44 H          -1.2500    2.2051   -3.1644 H       1  UNL1        0.0646
     45 O          -1.9605    3.8120   -2.1693 O.3     1  UNL1       -0.3865
     46 C          -0.0224    2.5953   -1.4207 C.3     1  UNL1        0.1129
     47 H          -0.7383    2.3553   -0.6243 H       1  UNL1        0.0647
     48 O           0.7971    3.6015   -0.8175 O.3     1  UNL1       -0.3415
     49 C           0.7351    1.2900   -1.7156 C.3     1  UNL1        0.0730
     50 O           1.3481    0.7329   -0.5573 O.3     1  UNL1       -0.3924
     51 H           5.4208    4.5067    1.7313 H       1  UNL1        0.0297
     52 H           5.6259    3.1084    0.6819 H       1  UNL1        0.0297
     53 H           5.0740    2.7272    3.5272 H       1  UNL1        0.1185
     54 H           5.0727    1.5014    2.4595 H       1  UNL1        0.1185
     55 H           1.0376    5.5217    3.0046 H       1  UNL1        0.2100
     56 H           2.5757    2.6378    3.8185 H       1  UNL1        0.2100
     57 H           4.7050    6.0444   -1.3585 H       1  UNL1        0.1185
     58 H           5.8791    4.9046   -1.1963 H       1  UNL1        0.1185
     59 H          -0.7456    5.7161   -1.4875 H       1  UNL1        0.1187
     60 H          -1.0175    6.2628   -3.0075 H       1  UNL1        0.1187
     61 H           0.2522    1.3383   -4.4336 H       1  UNL1        0.0871
     62 H           1.6379    1.6130   -5.4296 H       1  UNL1        0.0871
     63 H           0.7850    2.2268  -10.2449 H       1  UNL1        0.2125
     64 H          -1.6056    4.6353   -7.7028 H       1  UNL1        0.2100
     65 H           1.8636    6.6942   -7.1913 H       1  UNL1        0.0584
     66 H           0.2233    7.1402   -7.7264 H       1  UNL1        0.0584
     67 H           2.3856    6.6944   -9.4921 H       1  UNL1        0.2095
     68 H           1.2773    0.2960   -7.8212 H       1  UNL1        0.1187
     69 H           2.2348    0.6667   -9.0869 H       1  UNL1        0.1187
     70 H          -2.4667    4.1246   -2.9398 H       1  UNL1        0.2100
     71 H           0.0357    0.5379   -2.1038 H       1  UNL1        0.0584
     72 H           1.5269    1.4364   -2.4506 H       1  UNL1        0.0584
     73 H           0.6415    0.5059    0.0739 H       1  UNL1        0.2095
@<TRIPOS>BOND
     1     1    48    1
     2     1     3    1
     3     1     2    1
     4     4     6    1
     5     4     5    1
     6     4     3    1
     7     6     7    1
     8     6     8    1
     9     6    18    1
    10     8     9    1
    11     8    51    1
    12     8    52    1
    13     9    12    1
    14     9    11    1
    15     9    10    1
    16    11    53    1
    17    11    54    1
    18    12    13    1
    19    12    14    1
    20    12    17    1
    21    14     4    1
    22    14    16    1
    23    14    15    1
    24    16    55    1
    25    17    56    1
    26    18    57    1
    27    18    58    1
    28    19     1    1
    29    19    21    1
    30    19    20    1
    31    21    59    1
    32    21    60    1
    33    22    19    1
    34    22    24    1
    35    22    23    1
    36    24    25    1
    37    25    26    1
    38    25    61    1
    39    25    62    1
    40    27    29    1
    41    27    28    1
    42    27    26    1
    43    29    30    1
    44    29    31    1
    45    29    42    1
    46    31    34    1
    47    31    33    1
    48    31    32    1
    49    33    63    1
    50    34    35    1
    51    35    36    1
    52    35    37    1
    53    35    40    1
    54    37    27    1
    55    37    39    1
    56    37    38    1
    57    39    64    1
    58    40    41    1
    59    40    65    1
    60    40    66    1
    61    41    67    1
    62    42    68    1
    63    42    69    1
    64    43    22    1
    65    43    44    1
    66    43    45    1
    67    45    70    1
    68    46    43    1
    69    46    48    1
    70    46    49    1
    71    46    47    1
    72    49    50    1
    73    49    71    1
    74    49    72    1
    75    50    73    1
