3SKI_GNG_A_120
 OpenBabel03221817313D

 32 34  0  0  1  0  0  0  0  0999 V2000
    0.9930   -0.2543   -0.0785 O   0  0  0  0  0  0  0  0  0  0  0  0
    2.3867   -0.1536    0.2016 C   0  0  0  0  0  0  0  0  0  0  0  0
    3.0049   -1.5291    0.4477 C   0  0  1  0  0  0  0  0  0  0  0  0
    4.0728   -1.3823    0.6591 H   0  0  0  0  0  0  0  0  0  0  0  0
    2.4256   -2.1869    1.5956 O   0  0  0  0  0  0  0  0  0  0  0  0
    2.8024   -3.5697    1.4359 C   0  0  1  0  0  0  0  0  0  0  0  0
    3.8394   -3.6709    1.7812 H   0  0  0  0  0  0  0  0  0  0  0  0
    2.0002   -4.4510    2.2623 N   0  0  0  0  0  0  0  0  0  0  0  0
    2.2131   -5.8116    2.3562 C   0  0  0  0  0  0  0  0  0  0  0  0
    1.3633   -6.3978    3.1762 N   0  0  0  0  0  0  0  0  0  0  0  0
    0.5642   -5.3762    3.6437 C   0  0  0  0  0  0  0  0  0  0  0  0
    0.9574   -4.1871    3.0867 C   0  0  0  0  0  0  0  0  0  0  0  0
    0.3449   -3.0294    3.3663 N   0  0  0  0  0  0  0  0  0  0  0  0
    0.5629   -2.1675    2.8747 H   0  0  0  0  0  0  0  0  0  0  0  0
   -0.7281   -3.0946    4.2175 C   0  0  0  0  0  0  0  0  0  0  0  0
   -1.1841   -4.1630    4.8062 N   0  0  0  0  0  0  0  0  0  0  0  0
   -0.5661   -5.4030    4.5803 C   0  0  0  0  0  0  0  0  0  0  0  0
   -0.9426   -6.4330    5.1278 O   0  0  0  0  0  0  0  0  0  0  0  0
   -1.3353   -1.8990    4.4192 N   0  0  0  0  0  0  0  0  0  0  0  0
    2.6875   -3.8615   -0.0545 C   0  0  0  0  0  0  0  0  0  0  0  0
    2.8221   -2.5036   -0.7147 C   0  0  2  0  0  0  0  0  0  0  0  0
    1.9328   -2.2809   -1.3138 H   0  0  0  0  0  0  0  0  0  0  0  0
    3.9550   -2.4765   -1.5753 O   0  0  0  0  0  0  0  0  0  0  0  0
    0.6724    0.6505   -0.2427 H   0  0  0  0  0  0  0  0  0  0  0  0
    2.5026    0.4767    1.0887 H   0  0  0  0  0  0  0  0  0  0  0  0
    2.8739    0.3333   -0.6501 H   0  0  0  0  0  0  0  0  0  0  0  0
    2.9935   -6.3176    1.8014 H   0  0  0  0  0  0  0  0  0  0  0  0
   -0.7121   -1.1101    4.5241 H   0  0  0  0  0  0  0  0  0  0  0  0
   -2.0018   -1.9555    5.1848 H   0  0  0  0  0  0  0  0  0  0  0  0
    1.7028   -4.2816   -0.2937 H   0  0  0  0  0  0  0  0  0  0  0  0
    3.4392   -4.5892   -0.3791 H   0  0  0  0  0  0  0  0  0  0  0  0
    3.7571   -3.0516   -2.3370 H   0  0  0  0  0  0  0  0  0  0  0  0
  1  2  1  0  0  0  0
  1 24  1  0  0  0  0
  2  3  1  0  0  0  0
  2 25  1  0  0  0  0
  2 26  1  0  0  0  0
  3  4  1  0  0  0  0
  3  5  1  0  0  0  0
  3 21  1  6  0  0  0
  5  6  1  0  0  0  0
  6 20  1  0  0  0  0
  6  8  1  0  0  0  0
  6  7  1  1  0  0  0
  8  9  1  0  0  0  0
  8 12  1  0  0  0  0
  9 10  2  0  0  0  0
  9 27  1  0  0  0  0
 10 11  1  0  0  0  0
 11 12  2  0  0  0  0
 11 17  1  0  0  0  0
 12 13  1  0  0  0  0
 13 14  1  0  0  0  0
 13 15  1  0  0  0  0
 15 16  2  0  0  0  0
 15 19  1  0  0  0  0
 16 17  1  0  0  0  0
 17 18  2  0  0  0  0
 19 28  1  0  0  0  0
 19 29  1  0  0  0  0
 20 21  1  0  0  0  0
 20 30  1  0  0  0  0
 20 31  1  0  0  0  0
 21 22  1  6  0  0  0
 21 23  1  0  0  0  0
 23 32  1  0  0  0  0
M  END
$$$$
