@<TRIPOS>MOLECULE
3SKI_GNG_A_120
 32 34 0 0 0
SMALL
GASTEIGER

@<TRIPOS>ATOM
      1 O5*         0.9930   -0.2543   -0.0785 O.3     1    G1       -0.3924
      2 C5*         2.3867   -0.1536    0.2016 C.3     1    G1        0.0729
      3 C4*         3.0049   -1.5291    0.4477 C.3     1    G1        0.1100
      4 H4*         4.0728   -1.3823    0.6591 H       1    G1        0.0646
      5 O4*         2.4256   -2.1869    1.5956 O.3     1    G1       -0.3484
      6 C1*         2.8024   -3.5697    1.4359 C.3     1    G1        0.1407
      7 H1*         3.8394   -3.6709    1.7812 H       1    G1        0.0840
      8 N9          2.0002   -4.4510    2.2623 N.ar    1    G1       -0.2893
      9 C8          2.2131   -5.8116    2.3562 C.ar    1    G1        0.1004
     10 N7          1.3633   -6.3978    3.1762 N.ar    1    G1       -0.2286
     11 C5          0.5642   -5.3762    3.6437 C.ar    1    G1        0.1721
     12 C4          0.9574   -4.1871    3.0867 C.ar    1    G1        0.1482
     13 N3          0.3449   -3.0294    3.3663 N.ar    1    G1       -0.3122
     14 H3          0.5629   -2.1675    2.8747 H       1    G1        0.1700
     15 C2         -0.7281   -3.0946    4.2175 C.ar    1    G1        0.1952
     16 N1         -1.1841   -4.1630    4.8062 N.ar    1    G1       -0.1756
     17 C6         -0.5661   -5.4030    4.5803 C.ar    1    G1        0.3021
     18 O6         -0.9426   -6.4330    5.1278 O.2     1    G1       -0.2633
     19 N2         -1.3353   -1.8990    4.4192 N.pl3   1    G1       -0.3289
     20 C2*         2.6875   -3.8615   -0.0545 C.3     1    G1        0.0213
     21 C3*         2.8221   -2.5036   -0.7147 C.3     1    G1        0.0876
     22 H3*         1.9328   -2.2809   -1.3138 H       1    G1        0.0621
     23 O3*         3.9550   -2.4765   -1.5753 O.3     1    G1       -0.3890
     24 H5*         0.6724    0.6505   -0.2427 H       1    G1        0.2095
     25 H5*1        2.5026    0.4767    1.0887 H       1    G1        0.0584
     26 H5*2        2.8739    0.3333   -0.6501 H       1    G1        0.0584
     27 H8          2.9935   -6.3176    1.8014 H       1    G1        0.1030
     28 H21        -0.7121   -1.1101    4.5241 H       1    G1        0.1451
     29 H22        -2.0018   -1.9555    5.1848 H       1    G1        0.1451
     30 H2*1        1.7028   -4.2816   -0.2937 H       1    G1        0.0335
     31 H2*2        3.4392   -4.5892   -0.3791 H       1    G1        0.0335
     32 H3*         3.7571   -3.0516   -2.3370 H       1    G1        0.2099
@<TRIPOS>BOND
     1     1     2    1
     2     1    24    1
     3     2     3    1
     4     2    25    1
     5     2    26    1
     6     3     4    1
     7     3     5    1
     8     3    21    1
     9     5     6    1
    10     6    20    1
    11     6     8    1
    12     6     7    1
    13     8     9   ar
    14     8    12   ar
    15     9    10   ar
    16     9    27    1
    17    10    11   ar
    18    11    12   ar
    19    11    17   ar
    20    12    13   ar
    21    13    14    1
    22    13    15   ar
    23    15    16   ar
    24    15    19    1
    25    16    17   ar
    26    17    18    2
    27    19    28    1
    28    19    29    1
    29    20    21    1
    30    20    30    1
    31    20    31    1
    32    21    22    1
    33    21    23    1
    34    23    32    1
