ligand.pdb
 OpenBabel03221816243D

 51 53  0  0  1  0  0  0  0  0999 V2000
   -8.4290   -6.5070    3.6590 N   0  0  0  0  0  0  0  0  0  0  0  0
   -9.2010   -6.6050    4.7930 C   0  0  0  0  0  0  0  0  0  0  0  0
   -8.8050   -7.1860    5.8040 O   0  0  0  0  0  0  0  0  0  0  0  0
  -10.4810   -6.0000    4.7220 N   0  0  0  0  0  0  0  0  0  0  0  0
  -11.0320   -5.3180    3.6150 C   0  0  0  0  0  0  0  0  0  0  0  0
  -12.1680   -4.8330    3.6900 O   0  0  0  0  0  0  0  0  0  0  0  0
  -10.1490   -5.2580    2.4480 C   0  0  1  0  0  0  0  0  0  0  0  0
  -10.6110   -4.6110    1.3290 N   0  0  0  0  0  0  0  0  0  0  0  0
   -9.8660   -4.7120    0.1900 C   0  0  0  0  0  0  0  0  0  0  0  0
  -10.4110   -4.2230   -0.9840 C   0  0  0  0  0  0  0  0  0  0  0  0
   -9.7290   -4.2890   -2.1510 C   0  0  0  0  0  0  0  0  0  0  0  0
  -10.3620   -3.7430   -3.3910 C   0  0  0  0  0  0  0  0  0  0  0  0
   -8.4870   -4.8430   -2.1910 C   0  0  0  0  0  0  0  0  0  0  0  0
   -7.7440   -4.9180   -3.4850 C   0  0  0  0  0  0  0  0  0  0  0  0
   -7.9120   -5.3350   -1.0640 C   0  0  0  0  0  0  0  0  0  0  0  0
   -8.5720   -5.2910    0.1640 C   0  0  1  0  0  0  0  0  0  0  0  0
   -8.0320   -5.7800    1.3720 N   0  0  0  0  0  0  0  0  0  0  0  0
   -8.8440   -5.8720    2.5210 C   0  0  0  0  0  0  0  0  0  0  0  0
   -6.5430   -5.6540    1.5850 C   0  0  0  0  0  0  0  0  0  0  0  0
   -5.6760   -6.8740    1.1490 C   0  0  1  0  0  0  0  0  0  0  0  0
   -4.3670   -6.4450    0.8020 O   0  0  0  0  0  0  0  0  0  0  0  0
   -5.6570   -8.0140    2.1950 C   0  0  1  0  0  0  0  0  0  0  0  0
   -5.1730   -9.2170    1.6050 O   0  0  0  0  0  0  0  0  0  0  0  0
   -4.9050   -7.7370    3.5200 C   0  0  1  0  0  0  0  0  0  0  0  0
   -5.5030   -8.5190    4.5480 O   0  0  0  0  0  0  0  0  0  0  0  0
   -3.4010   -8.0830    3.4430 C   0  0  0  0  0  0  0  0  0  0  0  0
   -2.6440   -7.4470    4.4660 O   0  0  0  0  0  0  0  0  0  0  0  0
   -2.3710   -8.1210    5.8740 P   0  0  1  0  0  0  0  0  0  0  0  0
   -3.0660   -9.4240    5.9800 O   0  0  0  0  0  0  0  0  0  0  0  0
   -0.9330   -8.0560    6.2130 O   0  0  0  0  0  0  0  0  0  0  0  0
   -3.1130   -7.1590    6.9030 O   0  0  0  0  0  0  0  0  0  0  0  0
  -11.0820   -6.0380    5.5390 H   0  0  0  0  0  0  0  0  0  0  0  0
  -11.4050   -3.7740   -0.9790 H   0  0  0  0  0  0  0  0  0  0  0  0
   -9.7230   -2.9590   -3.8520 H   0  0  0  0  0  0  0  0  0  0  0  0
  -10.5230   -4.5450   -4.1440 H   0  0  0  0  0  0  0  0  0  0  0  0
  -11.3520   -3.2830   -3.1780 H   0  0  0  0  0  0  0  0  0  0  0  0
   -6.8670   -5.5980   -3.4070 H   0  0  0  0  0  0  0  0  0  0  0  0
   -8.3850   -5.3200   -4.3000 H   0  0  0  0  0  0  0  0  0  0  0  0
   -7.3900   -3.9110   -3.7950 H   0  0  0  0  0  0  0  0  0  0  0  0
   -6.9170   -5.7670   -1.1480 H   0  0  0  0  0  0  0  0  0  0  0  0
   -6.2990   -5.4010    2.6390 H   0  0  0  0  0  0  0  0  0  0  0  0
   -6.1840   -4.7780    0.9980 H   0  0  0  0  0  0  0  0  0  0  0  0
   -6.1290   -7.2740    0.2210 H   0  0  0  0  0  0  0  0  0  0  0  0
   -3.9250   -7.2260    0.4590 H   0  0  0  0  0  0  0  0  0  0  0  0
   -6.7260   -8.2050    2.4400 H   0  0  0  0  0  0  0  0  0  0  0  0
   -5.2780   -9.8980    2.2770 H   0  0  0  0  0  0  0  0  0  0  0  0
   -5.0240   -6.6670    3.7920 H   0  0  0  0  0  0  0  0  0  0  0  0
   -4.7880   -8.7390    5.1580 H   0  0  0  0  0  0  0  0  0  0  0  0
   -3.2530   -9.1870    3.4480 H   0  0  0  0  0  0  0  0  0  0  0  0
   -2.9980   -7.7220    2.4750 H   0  0  0  0  0  0  0  0  0  0  0  0
   -3.0510   -7.3460    7.8490 H   0  0  0  0  0  0  0  0  0  0  0  0
  1  2  1  0  0  0  0
  2  3  2  0  0  0  0
  4  2  1  0  0  0  0
  4 32  1  0  0  0  0
  5  6  2  0  0  0  0
  5  4  1  0  0  0  0
  7  8  1  1  0  0  0
  7 18  1  0  0  0  0
  7  5  1  0  0  0  0
  9  8  2  0  0  0  0
 10 33  1  0  0  0  0
 10  9  1  0  0  0  0
 11 10  2  0  0  0  0
 12 36  1  0  0  0  0
 12 11  1  0  0  0  0
 13 11  1  0  0  0  0
 13 15  2  0  0  0  0
 14 37  1  0  0  0  0
 14 13  1  0  0  0  0
 16 15  1  1  0  0  0
 16  9  1  0  0  0  0
 16 17  1  0  0  0  0
 17 19  1  0  0  0  0
 17 18  1  0  0  0  0
 18  1  2  0  0  0  0
 19 41  1  0  0  0  0
 20 43  1  6  0  0  0
 20 19  1  0  0  0  0
 20 22  1  0  0  0  0
 21 20  1  0  0  0  0
 22 45  1  1  0  0  0
 22 24  1  0  0  0  0
 23 22  1  0  0  0  0
 23 46  1  0  0  0  0
 24 47  1  1  0  0  0
 24 25  1  0  0  0  0
 25 48  1  0  0  0  0
 26 49  1  0  0  0  0
 26 24  1  0  0  0  0
 26 27  1  0  0  0  0
 27 28  1  0  0  0  0
 28 29  2  1  0  0  0
 28 30  1  0  0  0  0
 28 31  1  0  0  0  0
 31 51  1  0  0  0  0
 34 12  1  0  0  0  0
 35 12  1  0  0  0  0
 38 14  1  0  0  0  0
 39 14  1  0  0  0  0
 40 15  1  0  0  0  0
 42 19  1  0  0  0  0
 44 21  1  0  0  0  0
 50 26  1  0  0  0  0
M  END
>  <HEADER>
RNA                                     04-DEC-95   1FMN

>  <TITLE>
SOLUTION STRUCTURE OF FMN-RNA APTAMER COMPLEX, NMR, 5
2 STRUCTURES

>  <COMPND>
MOL_ID: 1;
2 MOLECULE: RNA (5'-R(*GP*GP*CP*GP*UP*GP*UP*AP*GP*GP
3 *AP*UP*AP*UP*GP*CP*UP*UP*CP*GP*GP*CP*AP*GP*AP*AP*GP
4 *GP*AP*CP*AP*CP*GP*CP*C)-3');
5 CHAIN: A;
6 ENGINEERED: YES

>  <SOURCE>
MOL_ID: 1;
2 SYNTHETIC: YES

>  <KEYWDS>
FMN-RNA COMPLEX, FMN-ADENINE PAIRING, FMN INTERCALATION,
2 BASE TRIPLE PLATFORM, BASE PAIR MISMATCHES

>  <EXPDTA>
SOLUTION NMR

>  <AUTHOR>
P.FAN,A.K.SURI,R.FIALA,D.LIVE,D.J.PATEL

>  <REVDAT>
2   24-FEB-09 1FMN    1       VERSN
1   11-JUL-96 1FMN    0

>  <JRNL>
AUTH   P.FAN,A.K.SURI,R.FIALA,D.LIVE,D.J.PATEL
TITL   MOLECULAR RECOGNITION IN THE FMN-RNA APTAMER
TITL 2 COMPLEX.
REF    J.MOL.BIOL.                   V. 258   480 1996
REFN                   ISSN 0022-2836
PMID   8642604
DOI    10.1006/JMBI.1996.0263

>  <REMARK>
1
2
2 RESOLUTION. NOT APPLICABLE.
3
3 REFINEMENT.
3   PROGRAM     : X-PLOR 3.1
3   AUTHORS     : BRUNGER
3
3  OTHER REFINEMENT REMARKS: NULL
4
4 1FMN COMPLIES WITH FORMAT V. 3.15, 01-DEC-08
100
100 THIS ENTRY HAS BEEN PROCESSED BY BNL.
210
210 EXPERIMENTAL DETAILS
210  EXPERIMENT TYPE                : NMR
210  TEMPERATURE           (KELVIN) : NULL
210  PH                             : 6.5
210  IONIC STRENGTH                 : NULL
210  PRESSURE                       : NULL
210  SAMPLE CONTENTS                : NULL
210
210  NMR EXPERIMENTS CONDUCTED      : SEE REMARK
210  SPECTROMETER FIELD STRENGTH    : 600 MHZ
210  SPECTROMETER MODEL             : UNITY PLUS
210  SPECTROMETER MANUFACTURER      : VARIAN
210
210  STRUCTURE DETERMINATION.
210   SOFTWARE USED                 : NULL
210   METHOD USED                   : NULL
210
210 CONFORMERS, NUMBER CALCULATED   : NULL
210 CONFORMERS, NUMBER SUBMITTED    : 5
210 CONFORMERS, SELECTION CRITERIA  : NULL
210
210 BEST REPRESENTATIVE CONFORMER IN THIS ENSEMBLE : NULL
210
210 REMARK: NULL
215
215 NMR STUDY
215 THE COORDINATES IN THIS ENTRY WERE GENERATED FROM SOLUTION
215 NMR DATA.  PROTEIN DATA BANK CONVENTIONS REQUIRE THAT
215 CRYST1 AND SCALE RECORDS BE INCLUDED, BUT THE VALUES ON
215 THESE RECORDS ARE MEANINGLESS.
500
500 GEOMETRY AND STEREOCHEMISTRY
500 SUBTOPIC: COVALENT BOND LENGTHS
500
500 THE STEREOCHEMICAL PARAMETERS OF THE FOLLOWING RESIDUES
500 HAVE VALUES WHICH DEVIATE FROM EXPECTED VALUES BY MORE
500 THAN 6*RMSD (M=MODEL NUMBER; RES=RESIDUE NAME; C=CHAIN
500 IDENTIFIER; SSEQ=SEQUENCE NUMBER; I=INSERTION CODE).
500
500 STANDARD TABLE:
500 FORMAT: (10X,I3,1X,2(A3,1X,A1,I4,A1,1X,A4,3X),1X,F6.3)
500
500 EXPECTED VALUES PROTEIN: ENGH AND HUBER, 1999
500 EXPECTED VALUES NUCLEIC ACID: CLOWNEY ET AL 1996
500
500  M RES CSSEQI ATM1   RES CSSEQI ATM2   DEVIATION
500  1   U A   5   C2      U A   5   N3      0.044
500  1   U A   7   C2      U A   7   N3      0.045
500  1   A A  13   N9      A A  13   C4      0.040
500  1   U A  14   C2      U A  14   N3      0.045
500  1   U A  17   C2      U A  17   N3      0.045
500  1   U A  18   C2      U A  18   N3      0.050
500  1   G A  33   C2      G A  33   N3      0.050
500  2   G A   2   C5      G A   2   N7     -0.038
500  2   U A   5   C2      U A   5   N3      0.042
500  2   U A  12   N1      U A  12   C2      0.058
500  2   U A  12   C2      U A  12   N3      0.043
500  2   U A  14   C2      U A  14   N3      0.045
500  2   U A  17   C2      U A  17   N3      0.043
500  2   U A  18   C2      U A  18   N3      0.048
500  2   G A  20   C8      G A  20   N9     -0.043
500  2   A A  31   N9      A A  31   C4      0.036
500  2   G A  33   C2      G A  33   N3      0.051
500  3   U A   5   C2      U A   5   N3      0.046
500  3   U A   7   C2      U A   7   N3      0.042
500  3   A A   8   N9      A A   8   C4      0.037
500  3   U A  12   N1      U A  12   C2      0.057
500  3   U A  12   C2      U A  12   N3      0.042
500  3   A A  13   N9      A A  13   C4      0.037
500  3   U A  17   C2      U A  17   N3      0.044
500  3   U A  18   C2      U A  18   N3      0.050
500  3   A A  29   N9      A A  29   C4      0.037
500  4   U A   5   C2      U A   5   N3      0.046
500  4   U A  14   C2      U A  14   N3      0.044
500  4   U A  17   C2      U A  17   N3      0.044
500  4   U A  18   C2      U A  18   N3      0.050
500  4   G A  20   C8      G A  20   N9     -0.052
500  4   A A  29   N9      A A  29   C4      0.037
500  5   U A   7   C2      U A   7   N3      0.044
500  5   A A  13   N9      A A  13   C4      0.038
500  5   U A  14   C2      U A  14   N3      0.044
500  5   U A  17   C2      U A  17   N3      0.045
500  5   U A  18   C2      U A  18   N3      0.050
500
500 REMARK: NULL
500
500 GEOMETRY AND STEREOCHEMISTRY
500 SUBTOPIC: COVALENT BOND ANGLES
500
500 THE STEREOCHEMICAL PARAMETERS OF THE FOLLOWING RESIDUES
500 HAVE VALUES WHICH DEVIATE FROM EXPECTED VALUES BY MORE
500 THAN 6*RMSD (M=MODEL NUMBER; RES=RESIDUE NAME; C=CHAIN
500 IDENTIFIER; SSEQ=SEQUENCE NUMBER; I=INSERTION CODE).
500
500 STANDARD TABLE:
500 FORMAT: (10X,I3,1X,A3,1X,A1,I4,A1,3(1X,A4,2X),12X,F5.1)
500
500 EXPECTED VALUES PROTEIN: ENGH AND HUBER, 1999
500 EXPECTED VALUES NUCLEIC ACID: CLOWNEY ET AL 1996
500
500  M RES CSSEQI ATM1   ATM2   ATM3
500  1   G A   1   N3  -  C2  -  N2  ANGL. DEV. =   5.9 DEGREES
500  1   G A   2   N3  -  C2  -  N2  ANGL. DEV. =   7.5 DEGREES
500  1   C A   3   N1  -  C2  -  O2  ANGL. DEV. =   4.2 DEGREES
500  1   G A   4   N3  -  C2  -  N2  ANGL. DEV. =   5.6 DEGREES
500  1   G A   6   N1  -  C2  -  N3  ANGL. DEV. =  -3.7 DEGREES
500  1   G A   6   N3  -  C2  -  N2  ANGL. DEV. =   6.6 DEGREES
500  1   G A   6   C5  -  C6  -  O6  ANGL. DEV. =  -3.6 DEGREES
500  1   A A   8   N1  -  C6  -  N6  ANGL. DEV. =   7.4 DEGREES
500  1   G A   9   N3  -  C2  -  N2  ANGL. DEV. =   5.7 DEGREES
500  1   G A  10   N3  -  C2  -  N2  ANGL. DEV. =   5.7 DEGREES
500  1   A A  11   N1  -  C6  -  N6  ANGL. DEV. =   6.7 DEGREES
500  1   A A  13   N1  -  C6  -  N6  ANGL. DEV. =   7.3 DEGREES
500  1   G A  15   N3  -  C2  -  N2  ANGL. DEV. =   6.2 DEGREES
500  1   G A  20   N3  -  C2  -  N2  ANGL. DEV. =   6.4 DEGREES
500  1   G A  21   N3  -  C2  -  N2  ANGL. DEV. =   6.4 DEGREES
500  1   G A  21   N1  -  C6  -  O6  ANGL. DEV. =   3.7 DEGREES
500  1   G A  21   C5  -  C6  -  O6  ANGL. DEV. =  -4.0 DEGREES
500  1   A A  23   N1  -  C6  -  N6  ANGL. DEV. =   6.6 DEGREES
500  1   G A  24   N3  -  C2  -  N2  ANGL. DEV. =   7.2 DEGREES
500  1   G A  24   N1  -  C6  -  O6  ANGL. DEV. =   3.9 DEGREES
500  1   A A  25   N1  -  C6  -  N6  ANGL. DEV. =   7.4 DEGREES
500  1   A A  26   N1  -  C6  -  N6  ANGL. DEV. =   5.5 DEGREES
500  1   G A  27   N3  -  C2  -  N2  ANGL. DEV. =   6.5 DEGREES
500  1   G A  27   N1  -  C6  -  O6  ANGL. DEV. =   3.8 DEGREES
500  1   G A  28   N3  -  C2  -  N2  ANGL. DEV. =   5.7 DEGREES
500  1   A A  29   N1  -  C6  -  N6  ANGL. DEV. =   7.3 DEGREES
500  1   C A  30   N3  -  C4  -  N4  ANGL. DEV. =   4.7 DEGREES
500  1   A A  31   N1  -  C6  -  N6  ANGL. DEV. =   7.4 DEGREES
500  1   A A  31   C5  -  C6  -  N6  ANGL. DEV. =  -4.8 DEGREES
500  1   G A  33   N1  -  C2  -  N2  ANGL. DEV. =  -5.5 DEGREES
500  1   G A  33   N3  -  C2  -  N2  ANGL. DEV. =   9.0 DEGREES
500  1   C A  34   C3' -  C2' -  C1' ANGL. DEV. =   5.1 DEGREES
500  1   C A  34   N1  -  C2  -  O2  ANGL. DEV. =   3.9 DEGREES
500  2   G A   1   N3  -  C2  -  N2  ANGL. DEV. =   6.8 DEGREES
500  2   G A   2   N1  -  C2  -  N3  ANGL. DEV. =  -3.7 DEGREES
500  2   G A   2   N3  -  C2  -  N2  ANGL. DEV. =   7.5 DEGREES
500  2   G A   2   N1  -  C6  -  O6  ANGL. DEV. =   3.7 DEGREES
500  2   C A   3   N3  -  C4  -  N4  ANGL. DEV. =   4.4 DEGREES
500  2   G A   4   N3  -  C2  -  N2  ANGL. DEV. =   6.0 DEGREES
500  2   G A   6   N3  -  C2  -  N2  ANGL. DEV. =   5.9 DEGREES
500  2   G A   6   N1  -  C6  -  O6  ANGL. DEV. =   3.8 DEGREES
500  2   G A   6   C5  -  C6  -  O6  ANGL. DEV. =  -3.6 DEGREES
500  2   U A   7   O4' -  C1' -  N1  ANGL. DEV. =   5.0 DEGREES
500  2   A A   8   N1  -  C6  -  N6  ANGL. DEV. =   6.3 DEGREES
500  2   G A   9   N3  -  C2  -  N2  ANGL. DEV. =   6.8 DEGREES
500  2   G A  10   N3  -  C2  -  N2  ANGL. DEV. =   6.2 DEGREES
500  2   A A  11   N1  -  C6  -  N6  ANGL. DEV. =   5.9 DEGREES
500  2   A A  11   C3' -  O3' -  P   ANGL. DEV. =   8.6 DEGREES
500  2   A A  13   N1  -  C6  -  N6  ANGL. DEV. =   6.9 DEGREES
500  2   G A  15   N3  -  C2  -  N2  ANGL. DEV. =   6.0 DEGREES
500
500 THIS ENTRY HAS     187 ANGLE DEVIATIONS.
500
500 REMARK: NULL
800
800 SITE
800 SITE_IDENTIFIER: AC1
800 EVIDENCE_CODE: SOFTWARE
800 SITE_DESCRIPTION: BINDING SITE FOR RESIDUE FMN A 36

>  <DBREF>
1FMN A    1    35  PDB    1FMN     1FMN             1     35

>  <SEQRES>
1 A   35    G   G   C   G   U   G   U   A   G   G   A   U   A
2 A   35    U   G   C   U   U   C   G   G   C   A   G   A   A
3 A   35    G   G   A   C   A   C   G   C   C

>  <HET>
FMN  A  36      51

>  <HETNAM>
FMN FLAVIN MONONUCLEOTIDE

>  <HETSYN>
FMN RIBOFLAVIN MONOPHOSPHATE

>  <FORMUL>
2  FMN    C17 H21 N4 O9 P

>  <SITE>
1 AC1  6   G A   9    G A  10    U A  12    A A  25
2 AC1  6   A A  26    G A  27

>  <ORIGX1>
1.000000  0.000000  0.000000        0.00000

>  <ORIGX2>
0.000000  1.000000  0.000000        0.00000

>  <ORIGX3>
0.000000  0.000000  1.000000        0.00000

>  <SCALE1>
1.000000  0.000000  0.000000        0.00000

>  <SCALE2>
0.000000  1.000000  0.000000        0.00000

>  <SCALE3>
0.000000  0.000000  1.000000        0.00000

>  <NUMMDL>
5

>  <MODEL>
1

$$$$
