REMARK  11 active torsions:
REMARK  status: ('A' for Active; 'I' for Inactive)
REMARK    1  A    between atoms: N_17  and  C_19 
REMARK    2  A    between atoms: C_20  and  C_19 
REMARK    3  A    between atoms: C_20  and  C_22 
REMARK    4  A    between atoms: O_21  and  C_20 
REMARK    5  A    between atoms: C_22  and  C_24 
REMARK    6  A    between atoms: O_23  and  C_22 
REMARK    7  A    between atoms: C_24  and  O_25 
REMARK    8  A    between atoms: C_26  and  C_24 
REMARK    9  A    between atoms: C_26  and  O_27 
REMARK   10  A    between atoms: O_27  and  P_28 
REMARK   11  A    between atoms: P_28  and  O_31 
ROOT
ATOM      1  N   UNL d   1      -8.429  -6.507   3.659  0.00  0.00    -0.173 NA
ATOM      2  C   UNL d   1      -9.201  -6.605   4.793  0.00  0.00     0.350 A 
ATOM      3  O   UNL d   1      -8.805  -7.186   5.804  0.00  0.00    -0.244 OA
ATOM      4  N   UNL d   1     -10.481  -6.000   4.722  0.00  0.00    -0.272 N 
ATOM      5  C   UNL d   1     -11.032  -5.318   3.615  0.00  0.00     0.282 A 
ATOM      6  O   UNL d   1     -12.168  -4.833   3.690  0.00  0.00    -0.265 OA
ATOM      7  C   UNL d   1     -10.149  -5.258   2.448  0.00  0.00     0.171 A 
ATOM      8  N   UNL d   1     -10.611  -4.611   1.329  0.00  0.00    -0.237 NA
ATOM      9  C   UNL d   1      -9.866  -4.712   0.190  0.00  0.00     0.085 A 
ATOM     10  C   UNL d   1     -10.411  -4.223  -0.984  0.00  0.00     0.041 A 
ATOM     11  C   UNL d   1      -9.729  -4.289  -2.151  0.00  0.00    -0.054 A 
ATOM     12  C   UNL d   1     -10.362  -3.743  -3.391  0.00  0.00     0.049 C 
ATOM     13  C   UNL d   1      -8.487  -4.843  -2.191  0.00  0.00    -0.054 A 
ATOM     14  C   UNL d   1      -7.744  -4.918  -3.485  0.00  0.00     0.049 C 
ATOM     15  C   UNL d   1      -7.912  -5.335  -1.064  0.00  0.00     0.039 A 
ATOM     16  C   UNL d   1      -8.572  -5.291   0.164  0.00  0.00     0.065 A 
ATOM     17  N   UNL d   1      -8.032  -5.780   1.372  0.00  0.00    -0.325 N 
ATOM     18  C   UNL d   1      -8.844  -5.872   2.521  0.00  0.00     0.170 A 
ATOM     19  H   UNL d   1     -11.082  -6.038   5.539  0.00  0.00     0.174 HD
ENDROOT
BRANCH  17  20
ATOM     20  C   UNL d   1      -6.543  -5.654   1.585  0.00  0.00     0.165 C 
BRANCH  20  21
ATOM     21  C   UNL d   1      -5.676  -6.874   1.149  0.00  0.00     0.167 C 
BRANCH  21  22
ATOM     22  C   UNL d   1      -5.657  -8.014   2.195  0.00  0.00     0.179 C 
BRANCH  22  23
ATOM     23  C   UNL d   1      -4.905  -7.737   3.520  0.00  0.00     0.173 C 
BRANCH  23  24
ATOM     24  O   UNL d   1      -5.503  -8.519   4.548  0.00  0.00    -0.391 OA
ATOM     25  H   UNL d   1      -4.788  -8.739   5.158  0.00  0.00     0.210 HD
ENDBRANCH  23  24
BRANCH  23  26
ATOM     26  C   UNL d   1      -3.401  -8.083   3.443  0.00  0.00     0.215 C 
BRANCH  26  27
ATOM     27  O   UNL d   1      -2.644  -7.447   4.466  0.00  0.00    -0.287 OA
BRANCH  27  28
ATOM     28  P   UNL d   1      -2.371  -8.121   5.874  0.00  0.00     0.406 P 
ATOM     29  O   UNL d   1      -3.066  -9.424   5.980  0.00  0.00    -0.624 OA
ATOM     30  O   UNL d   1      -0.933  -8.056   6.213  0.00  0.00    -0.624 OA
BRANCH  28  31
ATOM     31  O   UNL d   1      -3.113  -7.159   6.903  0.00  0.00    -0.300 OA
ATOM     32  H   UNL d   1      -3.051  -7.346   7.849  0.00  0.00     0.223 HD
ENDBRANCH  28  31
ENDBRANCH  27  28
ENDBRANCH  26  27
ENDBRANCH  23  26
ENDBRANCH  22  23
BRANCH  22  33
ATOM     33  O   UNL d   1      -5.173  -9.217   1.605  0.00  0.00    -0.390 OA
ATOM     34  H   UNL d   1      -5.278  -9.898   2.277  0.00  0.00     0.210 HD
ENDBRANCH  22  33
ENDBRANCH  21  22
BRANCH  21  35
ATOM     35  O   UNL d   1      -4.367  -6.445   0.802  0.00  0.00    -0.391 OA
ATOM     36  H   UNL d   1      -3.925  -7.226   0.459  0.00  0.00     0.210 HD
ENDBRANCH  21  35
ENDBRANCH  20  21
ENDBRANCH  17  20
TORSDOF 11
