@<TRIPOS>MOLECULE
ligand.pdb
 51 53 0 0 0
SMALL
GASTEIGER

@<TRIPOS>ATOM
      1 N          -8.4290   -6.5070    3.6590 N.am    1  UNL1        0.0427
      2 C          -9.2010   -6.6050    4.7930 C.2     1  UNL1        0.4398
      3 O          -8.8050   -7.1860    5.8040 O.2     1  UNL1       -0.2192
      4 N         -10.4810   -6.0000    4.7220 N.am    1  UNL1       -0.2138
      5 C         -11.0320   -5.3180    3.6150 C.2     1  UNL1        0.2653
      6 O         -12.1680   -4.8330    3.6900 O.2     1  UNL1       -0.2719
      7 C         -10.1490   -5.2580    2.4480 C.3     1  UNL1        0.2822
      8 N         -10.6110   -4.6110    1.3290 N.2     1  UNL1       -0.2525
      9 C          -9.8660   -4.7120    0.1900 C.2     1  UNL1        0.0927
     10 C         -10.4110   -4.2230   -0.9840 C.2     1  UNL1       -0.0329
     11 C          -9.7290   -4.2890   -2.1510 C.2     1  UNL1       -0.0458
     12 C         -10.3620   -3.7430   -3.3910 C.3     1  UNL1       -0.0394
     13 C          -8.4870   -4.8430   -2.1910 C.2     1  UNL1       -0.0468
     14 C          -7.7440   -4.9180   -3.4850 C.3     1  UNL1       -0.0396
     15 C          -7.9120   -5.3350   -1.0640 C.2     1  UNL1       -0.0244
     16 C          -8.5720   -5.2910    0.1640 C.3     1  UNL1        0.2128
     17 N          -8.0320   -5.7800    1.3720 N.pl3   1  UNL1       -0.2013
     18 C          -8.8440   -5.8720    2.5210 C.2     1  UNL1        0.3265
     19 C          -6.5430   -5.6540    1.5850 C.3     1  UNL1        0.1100
     20 C          -5.6760   -6.8740    1.1490 C.3     1  UNL1        0.1192
     21 O          -4.3670   -6.4450    0.8020 O.3     1  UNL1       -0.3854
     22 C          -5.6570   -8.0140    2.1950 C.3     1  UNL1        0.1125
     23 O          -5.1730   -9.2170    1.6050 O.3     1  UNL1       -0.3865
     24 C          -4.9050   -7.7370    3.5200 C.3     1  UNL1        0.1072
     25 O          -5.5030   -8.5190    4.5480 O.3     1  UNL1       -0.3868
     26 C          -3.4010   -8.0830    3.4430 C.3     1  UNL1        0.0833
     27 O          -2.6440   -7.4470    4.4660 O.3     1  UNL1       -0.3249
     28 P          -2.3710   -8.1210    5.8740 P.3     1  UNL1        0.2100
     29 O          -3.0660   -9.4240    5.9800 O.2     1  UNL1       -0.5173
     30 O          -0.9330   -8.0560    6.2130 O.3     1  UNL1       -0.4374
     31 O          -3.1130   -7.1590    6.9030 O.3     1  UNL1       -0.3436
     32 H         -11.0820   -6.0380    5.5390 H       1  UNL1        0.1614
     33 H         -11.4050   -3.7740   -0.9790 H       1  UNL1        0.0640
     34 H          -9.7230   -2.9590   -3.8520 H       1  UNL1        0.0278
     35 H         -10.5230   -4.5450   -4.1440 H       1  UNL1        0.0278
     36 H         -11.3520   -3.2830   -3.1780 H       1  UNL1        0.0278
     37 H          -6.8670   -5.5980   -3.4070 H       1  UNL1        0.0278
     38 H          -8.3850   -5.3200   -4.3000 H       1  UNL1        0.0278
     39 H          -7.3900   -3.9110   -3.7950 H       1  UNL1        0.0278
     40 H          -6.9170   -5.7670   -1.1480 H       1  UNL1        0.0623
     41 H          -6.2990   -5.4010    2.6390 H       1  UNL1        0.0753
     42 H          -6.1840   -4.7780    0.9980 H       1  UNL1        0.0753
     43 H          -6.1290   -7.2740    0.2210 H       1  UNL1        0.0658
     44 H          -3.9250   -7.2260    0.4590 H       1  UNL1        0.2101
     45 H          -6.7260   -8.2050    2.4400 H       1  UNL1        0.0647
     46 H          -5.2780   -9.8980    2.2770 H       1  UNL1        0.2100
     47 H          -5.0240   -6.6670    3.7920 H       1  UNL1        0.0643
     48 H          -4.7880   -8.7390    5.1580 H       1  UNL1        0.2100
     49 H          -3.2530   -9.1870    3.4480 H       1  UNL1        0.0591
     50 H          -2.9980   -7.7220    2.4750 H       1  UNL1        0.0591
     51 H          -3.0510   -7.3460    7.8490 H       1  UNL1        0.2176
@<TRIPOS>BOND
     1     1     2    1
     2     2     3    2
     3     4     2   am
     4     4    32    1
     5     5     6    2
     6     5     4   am
     7     7     8    1
     8     7    18    1
     9     7     5    1
    10     9     8    2
    11    10    33    1
    12    10     9    1
    13    11    10    2
    14    12    36    1
    15    12    11    1
    16    13    11    1
    17    13    15    2
    18    14    37    1
    19    14    13    1
    20    16    15    1
    21    16     9    1
    22    16    17    1
    23    17    19    1
    24    17    18    1
    25    18     1    2
    26    19    41    1
    27    20    43    1
    28    20    19    1
    29    20    22    1
    30    21    20    1
    31    22    45    1
    32    22    24    1
    33    23    22    1
    34    23    46    1
    35    24    47    1
    36    24    25    1
    37    25    48    1
    38    26    49    1
    39    26    24    1
    40    26    27    1
    41    27    28    1
    42    28    29    2
    43    28    30    1
    44    28    31    1
    45    31    51    1
    46    34    12    1
    47    35    12    1
    48    38    14    1
    49    39    14    1
    50    40    15    1
    51    42    19    1
    52    44    21    1
    53    50    26    1
