@<TRIPOS>MOLECULE
2W89_GOL_B_1973
 14 13 0 0 0
SMALL
GASTEIGER

@<TRIPOS>ATOM
      1 C          -1.3060   -0.0021    0.1746 C.3     1  UNL1        0.0723
      2 O          -1.2735    1.3270    0.6823 O.3     1  UNL1       -0.3924
      3 C           0.0092   -0.3000   -0.5365 C.3     1  UNL1        0.1012
      4 O           0.1346    0.5635   -1.6636 O.3     1  UNL1       -0.3873
      5 C           0.0453   -1.7394   -1.0347 C.3     1  UNL1        0.0723
      6 O           1.3334   -2.0313   -1.5642 O.3     1  UNL1       -0.3924
      7 H          -1.4488   -0.6764    1.0259 H       1  UNL1        0.0583
      8 H          -2.1631   -0.1042   -0.5028 H       1  UNL1        0.0583
      9 H          -1.8033    1.8820    0.0851 H       1  UNL1        0.2095
     10 H           0.8567   -0.1123    0.1337 H       1  UNL1        0.0639
     11 H           0.0905    1.4788   -1.3382 H       1  UNL1        0.2100
     12 H          -0.7032   -1.9179   -1.8153 H       1  UNL1        0.0583
     13 H          -0.1400   -2.4406   -0.2155 H       1  UNL1        0.0583
     14 H           1.4031   -1.5725   -2.4189 H       1  UNL1        0.2095
@<TRIPOS>BOND
     1     2     1    1
     2     3     1    1
     3     4     3    1
     4     5     3    1
     5     6     5    1
     6     1     7    1
     7     1     8    1
     8     2     9    1
     9     3    10    1
    10     4    11    1
    11     5    12    1
    12     5    13    1
    13     6    14    1
