REMARK  12 active torsions:
REMARK  status: ('A' for Active; 'I' for Inactive)
REMARK    1  A    between atoms: C_2  and  C_3 
REMARK    2  A    between atoms: C_6  and  O_7 
REMARK    3  A    between atoms: C_9  and  O_7 
REMARK    4  A    between atoms: C_10  and  O_38 
REMARK    5  A    between atoms: C_12  and  O_38 
REMARK    6  A    between atoms: C_14  and  O_43 
REMARK    7  A    between atoms: C_15  and  C_16 
REMARK    8  A    between atoms: C_17  and  O_43 
REMARK    9  A    between atoms: C_21  and  C_22 
REMARK   10  A    between atoms: C_26  and  C_23 
REMARK       I    between atoms: C_24  and  N_36 
REMARK   11  A    between atoms: C_26  and  C_24 
REMARK   12  A    between atoms: C_27  and  N_36 
ROOT
ATOM      1  C   UNL d   1      28.813  11.129   0.513  0.00  0.00     0.184 C 
ATOM      2  C   UNL d   1      29.413  10.855   1.951  0.00  0.00     0.179 C 
ATOM      3  C   UNL d   1      30.905  11.464   2.018  0.00  0.00     0.204 C 
ATOM      4  C   UNL d   1      31.789  10.678   0.945  0.00  0.00     0.141 C 
ATOM      5  C   UNL d   1      31.156  10.979  -0.499  0.00  0.00     0.069 C 
ATOM      6  C   UNL d   1      29.675  10.450  -0.570  0.00  0.00     0.333 C 
ATOM      7  N   UNL d   1      29.077  10.738  -1.882  0.00  0.00     0.619 N 
ATOM      8  O   UNL d   1      31.412  11.220   3.292  0.00  0.00    -0.219 OA
ENDROOT
BRANCH   2   9
ATOM      9  O   UNL d   1      28.519  11.535   2.909  0.00  0.00    -0.326 OA
BRANCH   9  10
ATOM     10  C   UNL d   1      28.268  11.180   4.123  0.00  0.00     0.270 C 
ATOM     11  O   UNL d   1      27.256  10.130   4.261  0.00  0.00    -0.326 OA
ATOM     12  C   UNL d   1      26.245  10.423   5.194  0.00  0.00     0.181 C 
ATOM     13  C   UNL d   1      27.008  11.508   6.015  0.00  0.00     0.183 C 
ATOM     14  C   UNL d   1      27.802  12.319   5.077  0.00  0.00     0.238 C 
ATOM     15  O   UNL d   1      28.930  12.858   5.691  0.00  0.00    -0.215 OA
BRANCH  12  16
ATOM     16  C   UNL d   1      24.857  10.769   4.653  0.00  0.00     0.214 C 
ATOM     17  O   UNL d   1      24.175   9.539   4.496  0.00  0.00    -0.218 OA
ENDBRANCH  12  16
BRANCH  13  18
ATOM     18  O   UNL d   1      27.979  10.919   6.993  0.00  0.00    -0.326 OA
BRANCH  18  19
ATOM     19  C   UNL d   1      27.563  10.749   8.282  0.00  0.00     0.282 C 
ATOM     20  O   UNL d   1      26.280   9.864   8.416  0.00  0.00    -0.321 OA
ATOM     21  C   UNL d   1      25.762   9.646   9.825  0.00  0.00     0.221 C 
ATOM     22  C   UNL d   1      26.778   9.041  10.654  0.00  0.00     0.239 C 
ATOM     23  C   UNL d   1      28.068   9.931  10.603  0.00  0.00     0.252 C 
ATOM     24  O   UNL d   1      27.036   8.006  10.230  0.00  0.00    -0.286 OA
ATOM     25  C   UNL d   1      28.632  10.146   9.145  0.00  0.00     0.421 C 
ATOM     26  O   UNL d   1      27.778  10.959  11.030  0.00  0.00    -0.286 OA
ATOM     27  N   UNL d   1      29.013   8.889   8.634  0.00  0.00     0.630 N 
BRANCH  21  28
ATOM     28  C   UNL d   1      24.446   8.751   9.812  0.00  0.00     0.376 C 
ATOM     29  N   UNL d   1      24.183   8.058   8.472  0.00  0.00     0.621 N 
ENDBRANCH  21  28
ENDBRANCH  18  19
ENDBRANCH  13  18
ENDBRANCH   9  10
ENDBRANCH   2   9
BRANCH   1  30
ATOM     30  O   UNL d   1      27.493  10.586   0.363  0.00  0.00    -0.327 OA
BRANCH  30  31
ATOM     31  C   UNL d   1      26.276  11.086   0.833  0.00  0.00     0.281 C 
ATOM     32  C   UNL d   1      25.231   9.915   0.951  0.00  0.00     0.416 C 
ATOM     33  C   UNL d   1      24.930   9.319  -0.444  0.00  0.00     0.227 C 
ATOM     34  N   UNL d   1      25.772   8.858   1.901  0.00  0.00     0.630 N 
ATOM     35  C   UNL d   1      24.404  10.409  -1.391  0.00  0.00     0.249 C 
ATOM     36  O   UNL d   1      24.140   8.500  -0.337  0.00  0.00    -0.291 OA
ATOM     37  F   UNL d   1      23.192  10.926  -0.900  0.00  0.00    -0.227 F 
ATOM     38  C   UNL d   1      25.432  11.610  -1.534  0.00  0.00     0.197 C 
ATOM     39  O   UNL d   1      25.740  12.131  -0.129  0.00  0.00    -0.326 OA
BRANCH  38  40
ATOM     40  C   UNL d   1      24.869  12.735  -2.450  0.00  0.00     0.371 C 
ATOM     41  N   UNL d   1      25.740  13.846  -2.595  0.00  0.00     0.621 N 
ENDBRANCH  38  40
ENDBRANCH  30  31
ENDBRANCH   1  30
BRANCH   4  42
ATOM     42  N   UNL d   1      33.192  11.186   0.921  0.00  0.00    -0.235 NA
ATOM     43  C   UNL d   1      34.278  10.172   0.718  0.00  0.00     0.286 C 
ATOM     44  O   UNL d   1      34.104   8.955   0.562  0.00  0.00    -0.267 OA
BRANCH  43  45
ATOM     45  C   UNL d   1      35.733  10.875   0.703  0.00  0.00     0.255 C 
ATOM     46  O   UNL d   1      35.591  12.280   0.505  0.00  0.00    -0.208 OA
BRANCH  45  47
ATOM     47  C   UNL d   1      36.287  10.617   1.887  0.00  0.00     0.031 C 
ATOM     48  C   UNL d   1      37.583  10.205   1.671  0.00  0.00     0.082 C 
ATOM     49  N   UNL d   1      38.828  10.761   2.063  0.00  0.00    -0.100 NA
ENDBRANCH  45  47
ENDBRANCH  43  45
ENDBRANCH   4  42
TORSDOF 12
