4PDQ_NMZ_B_101
 OpenBabel10091713583D
Coordinates from PDB:4PDQ:B:101 Model:1 without hydrogens
 49 52  0  0  0  0  0  0  0  0999 V2000
   24.4040   10.4090   -1.3910 C   0  0  1  0  0  0  0  0  0  0  0  0
   25.4320   11.6100   -1.5340 C   0  0  1  0  0  0  0  0  0  0  0  0
   24.8690   12.7350   -2.4500 C   0  0  0  0  0  0  0  0  0  0  0  0
   24.9300    9.3190   -0.4440 C   0  0  1  0  0  0  0  0  0  0  0  0
   25.2310    9.9150    0.9510 C   0  0  2  0  0  0  0  0  0  0  0  0
   26.2760   11.0860    0.8330 C   0  0  1  0  0  0  0  0  0  0  0  0
   27.4930   10.5860    0.3630 O   0  0  0  0  0  0  0  0  0  0  0  0
   34.1040    8.9550    0.5620 O   0  0  0  0  0  0  0  0  0  0  0  0
   28.8130   11.1290    0.5130 C   0  0  1  0  0  0  0  0  0  0  0  0
   29.4130   10.8550    1.9510 C   0  0  1  0  0  0  0  0  0  0  0  0
   30.9050   11.4640    2.0180 C   0  0  2  0  0  0  0  0  0  0  0  0
   28.2680   11.1800    4.1230 C   0  0  2  0  0  0  0  0  0  0  0  0
   27.8020   12.3190    5.0770 C   0  0  1  0  0  0  0  0  0  0  0  0
   27.0080   11.5080    6.0150 C   0  0  1  0  0  0  0  0  0  0  0  0
   26.2450   10.4230    5.1940 C   0  0  1  0  0  0  0  0  0  0  0  0
   24.8570   10.7690    4.6530 C   0  0  0  0  0  0  0  0  0  0  0  0
   27.5630   10.7490    8.2820 C   0  0  1  0  0  0  0  0  0  0  0  0
   28.6320   10.1460    9.1450 C   0  0  1  0  0  0  0  0  0  0  0  0
   28.0680    9.9310   10.6030 C   0  0  2  0  0  0  0  0  0  0  0  0
   26.7780    9.0410   10.6540 C   0  0  1  0  0  0  0  0  0  0  0  0
   25.7620    9.6460    9.8250 C   0  0  2  0  0  0  0  0  0  0  0  0
   24.4460    8.7510    9.8120 C   0  0  0  0  0  0  0  0  0  0  0  0
   36.2870   10.6170    1.8870 C   0  0  0  0  0  0  0  0  0  0  0  0
   34.2780   10.1720    0.7180 C   0  0  0  0  0  0  0  0  0  0  0  0
   37.5830   10.2050    1.6710 C   0  0  0  0  0  0  0  0  0  0  0  0
   35.7330   10.8750    0.7030 C   0  0  1  0  0  0  0  0  0  0  0  0
   31.7890   10.6780    0.9450 C   0  0  1  0  0  0  0  0  0  0  0  0
   31.1560   10.9790   -0.4990 C   0  0  0  0  0  0  0  0  0  0  0  0
   29.6750   10.4500   -0.5700 C   0  0  2  0  0  0  0  0  0  0  0  0
   23.1920   10.9260   -0.9000 F   0  0  0  0  0  0  0  0  0  0  0  0
   24.1830    8.0580    8.4720 N   0  0  0  0  0  0  0  0  0  0  0  0
   25.7720    8.8580    1.9010 N   0  0  0  0  0  0  0  0  0  0  0  0
   29.0130    8.8890    8.6340 N   0  0  0  0  0  0  0  0  0  0  0  0
   38.8280   10.7610    2.0630 N   0  0  0  0  0  0  0  0  0  0  0  0
   25.7400   13.8460   -2.5950 N   0  0  0  0  0  0  0  0  0  0  0  0
   33.1920   11.1860    0.9210 N   0  0  0  0  0  0  0  0  0  0  0  0
   29.0770   10.7380   -1.8820 N   0  0  0  0  0  0  0  0  0  0  0  0
   28.5190   11.5350    2.9090 O   0  0  0  0  0  0  0  0  0  0  0  0
   31.4120   11.2200    3.2920 O   0  0  0  0  0  0  0  0  0  0  0  0
   28.9300   12.8580    5.6910 O   0  0  0  0  0  0  0  0  0  0  0  0
   27.2560   10.1300    4.2610 O   0  0  0  0  0  0  0  0  0  0  0  0
   24.1750    9.5390    4.4960 O   0  0  0  0  0  0  0  0  0  0  0  0
   27.9790   10.9190    6.9930 O   0  0  0  0  0  0  0  0  0  0  0  0
   35.5910   12.2800    0.5050 O   0  0  0  0  0  0  0  0  0  0  0  0
   26.2800    9.8640    8.4160 O   0  0  0  0  0  0  0  0  0  0  0  0
   24.1400    8.5000   -0.3370 O   0  0  0  0  0  0  0  0  0  0  0  0
   27.0360    8.0060   10.2300 O   0  0  0  0  0  0  0  0  0  0  0  0
   27.7780   10.9590   11.0300 O   0  0  0  0  0  0  0  0  0  0  0  0
   25.7400   12.1310   -0.1290 O   0  0  0  0  0  0  0  0  0  0  0  0
  1 30  1  1  0  0  0
  1  4  1  0  0  0  0
  2  3  1  6  0  0  0
  2  1  1  0  0  0  0
  2 49  1  0  0  0  0
  4 46  1  1  0  0  0
  4  5  1  0  0  0  0
  5 32  1  1  0  0  0
  6  7  1  6  0  0  0
  6  5  1  0  0  0  0
  8 24  2  0  0  0  0
  9  7  1  1  0  0  0
  9 10  1  0  0  0  0
 10 11  1  0  0  0  0
 10 38  1  1  0  0  0
 11 39  1  1  0  0  0
 12 38  1  6  0  0  0
 12 41  1  0  0  0  0
 12 13  1  0  0  0  0
 13 40  1  1  0  0  0
 13 14  1  0  0  0  0
 14 43  1  1  0  0  0
 15 16  1  6  0  0  0
 15 14  1  0  0  0  0
 17 43  1  6  0  0  0
 17 45  1  0  0  0  0
 17 18  1  0  0  0  0
 18 33  1  6  0  0  0
 18 19  1  0  0  0  0
 19 20  1  0  0  0  0
 19 48  1  6  0  0  0
 20 47  1  6  0  0  0
 21 22  1  6  0  0  0
 21 20  1  0  0  0  0
 24 36  1  0  0  0  0
 25 23  1  0  0  0  0
 25 34  1  0  0  0  0
 26 44  1  1  0  0  0
 26 24  1  0  0  0  0
 26 23  1  0  0  0  0
 27 36  1  6  0  0  0
 27 11  1  0  0  0  0
 28 27  1  0  0  0  0
 29 37  1  6  0  0  0
 29 28  1  0  0  0  0
 29  9  1  0  0  0  0
 31 22  1  0  0  0  0
 35  3  1  0  0  0  0
 41 15  1  0  0  0  0
 42 16  1  0  0  0  0
 45 21  1  0  0  0  0
 49  6  1  0  0  0  0
A    1
C4
A    2
C5
A    3
C6
A    4
C3
A    5
C2
A    6
C1
A    7
O1
A    8
O2
A    9
C10
A   10
C11
A   11
C12
A   12
C13
A   13
C14
A   14
C15
A   15
C16
A   16
C17
A   17
C18
A   18
C19
A   19
C20
A   20
C21
A   21
C22
A   22
C23
A   23
C24
A   24
C26
A   25
C27
A   26
C28
A   27
C7
A   28
C8
A   29
C9
A   30
F99
A   31
N19
A   32
N2
A   33
N23
A   34
N3
A   35
N6
A   36
N7
A   37
N9
A   38
O11
A   39
O12
A   40
O14
A   41
O16
A   42
O17
A   43
O18
A   44
O19
A   45
O22
A   46
O23
A   47
O24
A   48
O25
A   49
O5
M  END
>  <InstanceId>
4PDQ_NMZ_B_101

>  <ChemCompId>
NMZ

>  <PdbId>
4PDQ

>  <ChainId>
B

>  <ResidueNumber>
101

>  <InsertionCode>


>  <Model>
1

>  <AltIds>


>  <MissingHeavyAtoms>
0

>  <ObservedFormula>
C27 N7 O14 F

>  <Name>
(2S)-4-amino-N-{(1R,2S,3R,4R,5S)-5-amino-3-{[3-O-(2,6-diamino-2,6-dideoxy-beta-L-idopyranosyl)-beta-D-ribofuranosyl]oxy}-4-[(2,6-diamino-2,4,6-trideoxy-4-fluoro-alpha-D-galactopyranosyl)oxy]-2-hydroxycyclohexyl}-2-hydroxybutanamide

>  <SystematicName>
(2S)-N-[(1R,2S,3R,4R,5S)-3-[(2S,3R,4S,5R)-4-[(2R,3R,4R,5S,6S)-6-(aminomethyl)-3-azanyl-4,5-bis(oxidanyl)oxan-2-yl]oxy-5-(hydroxymethyl)-3-oxidanyl-oxolan-2-yl]oxy-4-[(2S,3R,4R,5R,6R)-6-(aminomethyl)-3-azanyl-5-fluoranyl-4-oxidanyl-oxan-2-yl]oxy-5-azanyl-2-oxidanyl-cyclohexyl]-4-azanyl-2-oxidanyl-butanamide

>  <Synonyms>
1-N-[(S)-4-Amino-2-hydroxybutanoyl]-4'-deoxy-4'-fluoro-4'-epineomycin

>  <Type>
NON-POLYMER

>  <Formula>
C27 H52 F N7 O14

>  <MolecularWeight>
717.739

>  <ModifiedDate>
2015-01-02

>  <Parent>


>  <OneLetterCode>


>  <SubcomponentList>


>  <AmbiguousFlag>
N

>  <InChI>
InChI=1S/C27H52FN7O14/c28-13-10(4-30)44-25(14(33)18(13)40)47-21-7(32)3-8(35-24(43)9(37)1-2-29)16(38)23(21)49-27-20(42)22(12(6-36)46-27)48-26-15(34)19(41)17(39)11(5-31)45-26/h7-23,25-27,36-42H,1-6,29-34H2,(H,35,43)/t7-,8+,9-,10+,11-,12+,13-,14+,15+,16-,17+,18-,19+,20+,21+,22+,23+,25+,26+,27-/m0/s1

>  <InChIKey>
VWXJAOATJPQONW-MKAHEPKYSA-N

>  <SMILES>
C1[C@@H]([C@H]([C@@H]([C@H]([C@@H]1NC(=O)[C@H](CCN)O)O)O[C@H]2[C@@H]([C@@H]([C@H](O2)CO)O[C@@H]3[C@@H]([C@H]([C@@H]([C@@H](O3)CN)O)O)N)O)O[C@@H]4[C@@H]([C@H]([C@H]([C@H](O4)CN)F)O)N)N

$$$$
