@<TRIPOS>MOLECULE
4PDQ_NMZ_B_101
 49 52 0 0 0
SMALL
GASTEIGER
****
Coordinates from PDB:4PDQ:B:101 Model:1 without hydrogens
@<TRIPOS>ATOM
      1 C          24.4040   10.4090   -1.3910 C.3     1  UNL1        0.2211
      2 C          25.4320   11.6100   -1.5340 C.3     1  UNL1        0.1717
      3 C          24.8690   12.7350   -2.4500 C.3     1  UNL1        0.1417
      4 C          24.9300    9.3190   -0.4440 C.3     1  UNL1        0.2092
      5 C          25.2310    9.9150    0.9510 C.3     1  UNL1        0.1809
      6 C          26.2760   11.0860    0.8330 C.3     1  UNL1        0.2561
      7 O          27.4930   10.5860    0.3630 O.3     1  UNL1       -0.3278
      8 O          34.1040    8.9550    0.5620 O.2     1  UNL1       -0.2706
      9 C          28.8130   11.1290    0.5130 C.3     1  UNL1        0.1649
     10 C          29.4130   10.8550    1.9510 C.3     1  UNL1        0.1782
     11 C          30.9050   11.4640    2.0180 C.3     1  UNL1        0.2012
     12 C          28.2680   11.1800    4.1230 C.3     1  UNL1        0.2694
     13 C          27.8020   12.3190    5.0770 C.3     1  UNL1        0.2373
     14 C          27.0080   11.5080    6.0150 C.3     1  UNL1        0.1827
     15 C          26.2450   10.4230    5.1940 C.3     1  UNL1        0.1804
     16 C          24.8570   10.7690    4.6530 C.3     1  UNL1        0.2141
     17 C          27.5630   10.7490    8.2820 C.3     1  UNL1        0.2561
     18 C          28.6320   10.1460    9.1450 C.3     1  UNL1        0.1807
     19 C          28.0680    9.9310   10.6030 C.3     1  UNL1        0.2070
     20 C          26.7780    9.0410   10.6540 C.3     1  UNL1        0.2122
     21 C          25.7620    9.6460    9.8250 C.3     1  UNL1        0.1696
     22 C          24.4460    8.7510    9.8120 C.3     1  UNL1        0.1415
     23 C          36.2870   10.6170    1.8870 C.3     1  UNL1        0.0630
     24 C          34.2780   10.1720    0.7180 C.2     1  UNL1        0.2719
     25 C          37.5830   10.2050    1.6710 C.3     1  UNL1        0.1124
     26 C          35.7330   10.8750    0.7030 C.3     1  UNL1        0.2305
     27 C          31.7890   10.6780    0.9450 C.3     1  UNL1        0.1297
     28 C          31.1560   10.9790   -0.4990 C.3     1  UNL1        0.0459
     29 C          29.6750   10.4500   -0.5700 C.3     1  UNL1        0.1232
     30 F          23.1920   10.9260   -0.9000 F       1  UNL1       -0.2318
     31 N          24.1830    8.0580    8.4720 N.3     1  UNL1       -0.1286
     32 N          25.7720    8.8580    1.9010 N.3     1  UNL1       -0.1248
     33 N          29.0130    8.8890    8.6340 N.3     1  UNL1       -0.1248
     34 N          38.8280   10.7610    2.0630 N.3     1  UNL1       -0.1313
     35 N          25.7400   13.8460   -2.5950 N.3     1  UNL1       -0.1286
     36 N          33.1920   11.1860    0.9210 N.am    1  UNL1       -0.2023
     37 N          29.0770   10.7380   -1.8820 N.3     1  UNL1       -0.1302
     38 O          28.5190   11.5350    2.9090 O.3     1  UNL1       -0.3258
     39 O          31.4120   11.2200    3.2920 O.3     1  UNL1       -0.2186
     40 O          28.9300   12.8580    5.6910 O.3     1  UNL1       -0.2150
     41 O          27.2560   10.1300    4.2610 O.3     1  UNL1       -0.3257
     42 O          24.1750    9.5390    4.4960 O.3     1  UNL1       -0.2176
     43 O          27.9790   10.9190    6.9930 O.3     1  UNL1       -0.3265
     44 O          35.5910   12.2800    0.5050 O.3     1  UNL1       -0.2131
     45 O          26.2800    9.8640    8.4160 O.3     1  UNL1       -0.3276
     46 O          24.1400    8.5000   -0.3370 O.3     1  UNL1       -0.2184
     47 O          27.0360    8.0060   10.2300 O.3     1  UNL1       -0.2177
     48 O          27.7780   10.9590   11.0300 O.3     1  UNL1       -0.2186
     49 O          25.7400   12.1310   -0.1290 O.3     1  UNL1       -0.3274
@<TRIPOS>BOND
     1     1    30    1
     2     1     4    1
     3     2     3    1
     4     2     1    1
     5     2    49    1
     6     4    46    1
     7     4     5    1
     8     5    32    1
     9     6     7    1
    10     6     5    1
    11     8    24    2
    12     9     7    1
    13     9    10    1
    14    10    11    1
    15    10    38    1
    16    11    39    1
    17    12    38    1
    18    12    41    1
    19    12    13    1
    20    13    40    1
    21    13    14    1
    22    14    43    1
    23    15    16    1
    24    15    14    1
    25    17    43    1
    26    17    45    1
    27    17    18    1
    28    18    33    1
    29    18    19    1
    30    19    20    1
    31    19    48    1
    32    20    47    1
    33    21    22    1
    34    21    20    1
    35    24    36   am
    36    25    23    1
    37    25    34    1
    38    26    44    1
    39    26    24    1
    40    26    23    1
    41    27    36    1
    42    27    11    1
    43    28    27    1
    44    29    37    1
    45    29    28    1
    46    29     9    1
    47    31    22    1
    48    35     3    1
    49    41    15    1
    50    42    16    1
    51    45    21    1
    52    49     6    1
