REMARK  6 active torsions:
REMARK  status: ('A' for Active; 'I' for Inactive)
REMARK    1  A    between atoms: O_3  and  C_1 
REMARK    2  A    between atoms: C_4  and  C_1 
REMARK    3  A    between atoms: C_5  and  C_4 
REMARK    4  A    between atoms: C_6  and  C_5 
REMARK    5  A    between atoms: C_7  and  C_6 
REMARK    6  A    between atoms: C_8  and  C_7 
ROOT
ATOM      1  C   UNL d   1       1.048  -0.027   0.998  0.00  0.00     0.072 C 
ATOM      2  S   UNL d   1       2.455   0.534   2.006  0.00  0.00    -0.160 SA
ATOM      3  C   UNL d   1       3.546  -0.788   1.432  0.00  0.00     0.101 C 
ATOM      4  C   UNL d   1       3.052  -1.171   0.036  0.00  0.00     0.119 C 
ATOM      5  N   UNL d   1       3.963  -0.702  -0.981  0.00  0.00    -0.336 N 
ATOM      6  C   UNL d   1       3.427   0.371  -1.703  0.00  0.00     0.316 C 
ATOM      7  O   UNL d   1       4.030   1.079  -2.500  0.00  0.00    -0.247 OA
ATOM      8  N   UNL d   1       2.149   0.643  -1.169  0.00  0.00    -0.335 N 
ATOM      9  C   UNL d   1       1.735  -0.452  -0.301  0.00  0.00     0.123 C 
ATOM     10  H   UNL d   1       4.920  -1.030  -1.077  0.00  0.00     0.164 HD
ATOM     11  H   UNL d   1       1.456   1.053  -1.790  0.00  0.00     0.164 HD
ENDROOT
BRANCH   1  12
ATOM     12  C   UNL d   1      -0.096   0.981   0.842  0.00  0.00     0.017 C 
BRANCH  12  13
ATOM     13  C   UNL d   1      -0.531   1.720   2.120  0.00  0.00     0.002 C 
BRANCH  13  14
ATOM     14  C   UNL d   1      -0.979   0.804   3.268  0.00  0.00     0.010 C 
BRANCH  14  15
ATOM     15  C   UNL d   1      -2.469   0.463   3.181  0.00  0.00     0.110 C 
BRANCH  15  16
ATOM     16  C   UNL d   1      -2.847  -0.988   3.363  0.00  0.00     0.139 C 
ATOM     17  O   UNL d   1      -3.960  -1.351   3.729  0.00  0.00    -0.650 OA
BRANCH  16  18
ATOM     18  O   UNL d   1      -1.872  -1.851   2.999  0.00  0.00    -0.776 OA
ATOM     19  H   UNL d   1      -1.956  -2.712   3.463  0.00  0.00     0.167 HD
ENDBRANCH  16  18
ENDBRANCH  15  16
ENDBRANCH  14  15
ENDBRANCH  13  14
ENDBRANCH  12  13
ENDBRANCH   1  12
TORSDOF 6
