@<TRIPOS>MOLECULE
1F27_BTN_A_33
 32 33 0 0 0
SMALL
GASTEIGER

@<TRIPOS>ATOM
      1 C          -2.8473   -0.9876    3.3630 C.2     1  UNL1        0.3047
      2 O          -3.9601   -1.3506    3.7295 O.2     1  UNL1       -0.2510
      3 O          -1.8724   -1.8512    2.9994 O.3     1  UNL1       -0.4806
      4 C          -2.4686    0.4628    3.1809 C.3     1  UNL1        0.0448
      5 C          -0.9786    0.8043    3.2681 C.3     1  UNL1       -0.0430
      6 C          -0.5307    1.7204    2.1198 C.3     1  UNL1       -0.0515
      7 C          -0.0961    0.9810    0.8423 C.3     1  UNL1       -0.0394
      8 C           1.0478   -0.0270    0.9981 C.3     1  UNL1        0.0255
      9 H           0.6513   -0.9336    1.4726 H       1  UNL1        0.0431
     10 S           2.4547    0.5339    2.0061 S.3     1  UNL1       -0.1536
     11 C           3.5461   -0.7878    1.4323 C.3     1  UNL1        0.0143
     12 C           3.0524   -1.1709    0.0358 C.3     1  UNL1        0.0529
     13 H           2.9643   -2.2570   -0.0613 H       1  UNL1        0.0525
     14 N           3.9634   -0.7023   -0.9813 N.am    1  UNL1       -0.2940
     15 C           3.4268    0.3710   -1.7031 C.2     1  UNL1        0.3002
     16 O           4.0296    1.0790   -2.5003 O.2     1  UNL1       -0.2528
     17 N           2.1492    0.6434   -1.1693 N.am    1  UNL1       -0.2937
     18 C           1.7354   -0.4519   -0.3009 C.3     1  UNL1        0.0555
     19 H           1.0790   -1.0883   -0.9094 H       1  UNL1        0.0528
     20 H          -1.9555   -2.7123    3.4628 H       1  UNL1        0.2951
     21 H          -2.9012    0.7807    2.2250 H       1  UNL1        0.0377
     22 H          -2.9935    1.0244    3.9634 H       1  UNL1        0.0377
     23 H          -0.3452   -0.0823    3.3294 H       1  UNL1        0.0270
     24 H          -0.8023    1.3374    4.2131 H       1  UNL1        0.0270
     25 H          -1.3379    2.4161    1.8614 H       1  UNL1        0.0266
     26 H           0.2867    2.3668    2.4692 H       1  UNL1        0.0266
     27 H           0.1562    1.7408    0.0939 H       1  UNL1        0.0276
     28 H          -0.9682    0.4469    0.4384 H       1  UNL1        0.0276
     29 H           3.4446   -1.6342    2.1182 H       1  UNL1        0.0395
     30 H           4.5858   -0.4489    1.4501 H       1  UNL1        0.0395
     31 H           4.9197   -1.0297   -1.0773 H       1  UNL1        0.1506
     32 H           1.4558    1.0526   -1.7904 H       1  UNL1        0.1506
@<TRIPOS>BOND
     1     2     1    2
     2     3     1    1
     3     4     1    1
     4     5     4    1
     5     6     5    1
     6     7     6    1
     7     8     7    1
     8     8     9    1
     9    10     8    1
    10    11    10    1
    11    12    11    1
    12    12    13    1
    13    14    12    1
    14    15    14   am
    15    16    15    2
    16    17    15   am
    17    18    17    1
    18    18    19    1
    19    18     8    1
    20    18    12    1
    21     3    20    1
    22     4    21    1
    23     4    22    1
    24     5    23    1
    25     5    24    1
    26     6    25    1
    27     6    26    1
    28     7    27    1
    29     7    28    1
    30    11    29    1
    31    11    30    1
    32    14    31    1
    33    17    32    1
