@<TRIPOS>MOLECULE
3GAO_XAN_A_90
 11 12 0 0 0
SMALL
GASTEIGER
****
Coordinates from PDB:3GAO:A:90 Model:1 without hydrogens
@<TRIPOS>ATOM
      1 N          10.4670   12.7090    6.2060 N.ar    1  UNL1       -0.2030
      2 C          10.8970   12.2300    7.4190 C.ar    1  UNL1        0.1911
      3 N          10.8490   12.9230    8.6000 N.ar    1  UNL1       -0.1699
      4 C          11.3420   12.2170    9.6910 C.ar    1  UNL1        0.3728
      5 O          11.3520   12.7320   10.8210 O.2     1  UNL1       -0.2425
      6 N          11.8370   10.8960    9.5090 N.ar    1  UNL1       -0.1503
      7 C          11.8910   10.1740    8.2960 C.ar    1  UNL1        0.3038
      8 O          12.3430    9.0330    8.2740 O.2     1  UNL1       -0.2633
      9 C          11.3680   10.9460    7.1940 C.ar    1  UNL1        0.1765
     10 N          11.2320   10.6280    5.8570 N.ar    1  UNL1       -0.2159
     11 C          10.6990   11.6970    5.3240 C.ar    1  UNL1        0.2005
@<TRIPOS>BOND
     1     1     2   ar
     2     1    11   ar
     3     2     3   ar
     4     2     9   ar
     5     3     4   ar
     6     4     5    2
     7     4     6   ar
     8     6     7   ar
     9     7     8    2
    10     7     9   ar
    11     9    10   ar
    12    10    11   ar
