3GAO_XAN_A_90
 OpenBabel10091713573D
Coordinates from PDB:3GAO:A:90 Model:1 without hydrogens
 15 16  0  0  0  0  0  0  0  0999 V2000
   10.4670   12.7090    6.2060 N   0  0  0  0  0  0  0  0  0  0  0  0
   10.8970   12.2300    7.4190 C   0  0  0  0  0  0  0  0  0  0  0  0
   10.8490   12.9230    8.6000 N   0  0  0  0  0  0  0  0  0  0  0  0
   11.3420   12.2170    9.6910 C   0  0  0  0  0  0  0  0  0  0  0  0
   11.3520   12.7320   10.8210 O   0  0  0  0  0  0  0  0  0  0  0  0
   11.8370   10.8960    9.5090 N   0  0  0  0  0  0  0  0  0  0  0  0
   11.8910   10.1740    8.2960 C   0  0  0  0  0  0  0  0  0  0  0  0
   12.3430    9.0330    8.2740 O   0  0  0  0  0  0  0  0  0  0  0  0
   11.3680   10.9460    7.1940 C   0  0  0  0  0  0  0  0  0  0  0  0
   11.2320   10.6280    5.8570 N   0  0  0  0  0  0  0  0  0  0  0  0
   10.6990   11.6970    5.3240 C   0  0  0  0  0  0  0  0  0  0  0  0
   10.0759   13.5921    6.0152 H   0  0  0  0  0  0  0  0  0  0  0  0
   10.4966   13.8396    8.6696 H   0  0  0  0  0  0  0  0  0  0  0  0
   12.1771   10.4376   10.3111 H   0  0  0  0  0  0  0  0  0  0  0  0
   10.4732   11.7678    4.3195 H   0  0  0  0  0  0  0  0  0  0  0  0
  1  2  1  0  0  0  0
  1 11  1  0  0  0  0
  1 12  1  0  0  0  0
  2  3  1  0  0  0  0
  2  9  2  0  0  0  0
  3  4  1  0  0  0  0
  3 13  1  0  0  0  0
  4  5  2  0  0  0  0
  4  6  1  0  0  0  0
  6  7  1  0  0  0  0
  6 14  1  0  0  0  0
  7  8  2  0  0  0  0
  7  9  1  0  0  0  0
  9 10  1  0  0  0  0
 10 11  2  0  0  0  0
 11 15  1  0  0  0  0
M  END
$$$$
