@<TRIPOS>MOLECULE
2L8H_L8H_A_2
 24 25 0 0 0
SMALL
GASTEIGER
****
Coordinates from PDB:2L8H:A:2 Model:1 without hydrogens
@<TRIPOS>ATOM
      1 N          -1.3530   93.8500  -35.1480 N.pl3   1  UNL1       -0.3579
      2 C          -2.4600   88.6790  -34.9300 C.3     1  UNL1        0.0788
      3 C           2.9810   89.7050  -35.5560 C.ar    1  UNL1       -0.0612
      4 C           2.2470   88.6530  -35.0150 C.ar    1  UNL1       -0.0611
      5 C           2.3930   90.9570  -35.7040 C.ar    1  UNL1       -0.0539
      6 C           0.9220   88.8550  -34.6410 C.ar    1  UNL1       -0.0505
      7 C          -1.5700   91.5720  -34.5250 C.ar    1  UNL1        0.0013
      8 C           0.4960   92.4210  -35.4340 C.ar    1  UNL1       -0.0331
      9 O          -1.6990   89.2840  -33.8830 O.3     1  UNL1       -0.4944
     10 C          -0.8230   92.6300  -35.0430 C.ar    1  UNL1        0.0286
     11 C          -0.9840   90.3140  -34.4010 C.ar    1  UNL1        0.1295
     12 C           1.0720   91.1610  -35.3170 C.ar    1  UNL1       -0.0127
     13 C           0.3330   90.1080  -34.7930 C.ar    1  UNL1        0.0239
     14 H          -2.2854   94.0069  -34.8737 H       1  UNL1        0.1423
     15 H          -0.8116   94.5933  -35.4998 H       1  UNL1        0.1423
     16 H          -3.0286   87.8643  -34.5327 H       1  UNL1        0.0660
     17 H          -1.7979   88.3156  -35.6880 H       1  UNL1        0.0660
     18 H          -3.1234   89.4039  -35.3535 H       1  UNL1        0.0660
     19 H           3.9599   89.5562  -35.8468 H       1  UNL1        0.0618
     20 H           2.6842   87.7263  -34.8917 H       1  UNL1        0.0618
     21 H           2.9384   91.7373  -36.1022 H       1  UNL1        0.0624
     22 H           0.3736   88.0734  -34.2495 H       1  UNL1        0.0625
     23 H          -2.5495   91.7199  -34.2357 H       1  UNL1        0.0673
     24 H           1.0495   93.2053  -35.8128 H       1  UNL1        0.0642
@<TRIPOS>BOND
     1     1    10    1
     2     1    14    1
     3     1    15    1
     4     2     9    1
     5     2    16    1
     6     2    17    1
     7     2    18    1
     8     3     4   ar
     9     3     5   ar
    10     3    19    1
    11     4     6   ar
    12     4    20    1
    13     5    12   ar
    14     5    21    1
    15     6    13   ar
    16     6    22    1
    17     7    10   ar
    18     7    11   ar
    19     7    23    1
    20     8    10   ar
    21     8    12   ar
    22     8    24    1
    23     9    11    1
    24    11    13   ar
    25    12    13   ar
