2L8H_L8H_A_2
 OpenBabel10091713583D
Coordinates from PDB:2L8H:A:2 Model:1 without hydrogens
 24 25  0  0  0  0  0  0  0  0999 V2000
   -1.3530   93.8500  -35.1480 N   0  0  0  0  0  0  0  0  0  0  0  0
   -2.4600   88.6790  -34.9300 C   0  0  0  0  0  0  0  0  0  0  0  0
    2.9810   89.7050  -35.5560 C   0  0  0  0  0  0  0  0  0  0  0  0
    2.2470   88.6530  -35.0150 C   0  0  0  0  0  0  0  0  0  0  0  0
    2.3930   90.9570  -35.7040 C   0  0  0  0  0  0  0  0  0  0  0  0
    0.9220   88.8550  -34.6410 C   0  0  0  0  0  0  0  0  0  0  0  0
   -1.5700   91.5720  -34.5250 C   0  0  0  0  0  0  0  0  0  0  0  0
    0.4960   92.4210  -35.4340 C   0  0  0  0  0  0  0  0  0  0  0  0
   -1.6990   89.2840  -33.8830 O   0  0  0  0  0  0  0  0  0  0  0  0
   -0.8230   92.6300  -35.0430 C   0  0  0  0  0  0  0  0  0  0  0  0
   -0.9840   90.3140  -34.4010 C   0  0  0  0  0  0  0  0  0  0  0  0
    1.0720   91.1610  -35.3170 C   0  0  0  0  0  0  0  0  0  0  0  0
    0.3330   90.1080  -34.7930 C   0  0  0  0  0  0  0  0  0  0  0  0
   -2.2854   94.0069  -34.8737 H   0  0  0  0  0  0  0  0  0  0  0  0
   -0.8116   94.5933  -35.4998 H   0  0  0  0  0  0  0  0  0  0  0  0
   -3.0286   87.8643  -34.5327 H   0  0  0  0  0  0  0  0  0  0  0  0
   -1.7979   88.3156  -35.6880 H   0  0  0  0  0  0  0  0  0  0  0  0
   -3.1234   89.4039  -35.3535 H   0  0  0  0  0  0  0  0  0  0  0  0
    3.9599   89.5562  -35.8468 H   0  0  0  0  0  0  0  0  0  0  0  0
    2.6842   87.7263  -34.8917 H   0  0  0  0  0  0  0  0  0  0  0  0
    2.9384   91.7373  -36.1022 H   0  0  0  0  0  0  0  0  0  0  0  0
    0.3736   88.0734  -34.2495 H   0  0  0  0  0  0  0  0  0  0  0  0
   -2.5495   91.7199  -34.2357 H   0  0  0  0  0  0  0  0  0  0  0  0
    1.0495   93.2053  -35.8128 H   0  0  0  0  0  0  0  0  0  0  0  0
  1 10  1  0  0  0  0
  1 14  1  0  0  0  0
  1 15  1  0  0  0  0
  2  9  1  0  0  0  0
  2 16  1  0  0  0  0
  2 17  1  0  0  0  0
  2 18  1  0  0  0  0
  3  4  2  0  0  0  0
  3  5  1  0  0  0  0
  3 19  1  0  0  0  0
  4  6  1  0  0  0  0
  4 20  1  0  0  0  0
  5 12  2  0  0  0  0
  5 21  1  0  0  0  0
  6 13  2  0  0  0  0
  6 22  1  0  0  0  0
  7 10  1  0  0  0  0
  7 11  2  0  0  0  0
  7 23  1  0  0  0  0
  8 10  2  0  0  0  0
  8 12  1  0  0  0  0
  8 24  1  0  0  0  0
  9 11  1  0  0  0  0
 11 13  1  0  0  0  0
 12 13  1  0  0  0  0
M  END
$$$$
