REMARK  13 active torsions:
REMARK  status: ('A' for Active; 'I' for Inactive)
REMARK    1  A    between atoms: C_1  and  O_10 
REMARK    2  A    between atoms: C_2  and  N_9 
REMARK    3  A    between atoms: C_5  and  C_6 
REMARK    4  A    between atoms: C_6  and  N_7 
REMARK    5  A    between atoms: C_11  and  O_10 
REMARK    6  A    between atoms: C_12  and  N_31 
REMARK    7  A    between atoms: C_14  and  N_30 
REMARK    8  A    between atoms: C_15  and  O_18 
REMARK    9  A    between atoms: C_16  and  O_17 
REMARK   10  A    between atoms: C_19  and  O_18 
REMARK   11  A    between atoms: C_20  and  O_29 
REMARK   12  A    between atoms: C_21  and  N_27 
REMARK   13  A    between atoms: C_22  and  O_26 
ROOT
ATOM      1  C   UNL d   1       6.633   4.573   2.521  0.00  0.00     0.189 C 
ATOM      2  C   UNL d   1       7.087   5.220   1.185  0.00  0.00     0.251 C 
ATOM      3  C   UNL d   1       6.101   4.993   0.055  0.00  0.00     0.076 C 
ATOM      4  C   UNL d   1       4.728   5.553   0.406  0.00  0.00     0.251 C 
ATOM      5  C   UNL d   1       4.156   4.895   1.700  0.00  0.00     0.189 C 
ATOM      6  C   UNL d   1       5.175   4.939   2.871  0.00  0.00     0.180 C 
ENDROOT
BRANCH   5   7
ATOM      7  O   UNL d   1       2.976   5.555   2.226  0.00  0.00    -0.348 OA
BRANCH   7   8
ATOM      8  C   UNL d   1       1.918   5.728   1.293  0.00  0.00     0.291 C 
ATOM      9  C   UNL d   1       0.741   6.470   1.965  0.00  0.00     0.209 C 
ATOM     10  C   UNL d   1      -0.378   6.708   0.917  0.00  0.00     0.288 C 
ATOM     11  C   UNL d   1      -0.720   5.368   0.170  0.00  0.00     0.109 C 
ATOM     12  C   UNL d   1       0.561   4.646  -0.282  0.00  0.00     0.210 C 
ATOM     13  C   UNL d   1      -1.558   4.419   1.033  0.00  0.00     0.050 C 
ATOM     14  O   UNL d   1       1.479   4.465   0.797  0.00  0.00    -0.356 OA
BRANCH   9  15
ATOM     15  O   UNL d   1       0.215   5.734   3.079  0.00  0.00    -0.388 OA
ATOM     16  H   UNL d   1       0.917   5.106   3.341  0.00  0.00     0.210 HD
ENDBRANCH   9  15
BRANCH  10  17
ATOM     17  N   UNL d   1      -0.055   7.748  -0.115  0.00  0.00     0.089 N 
ATOM     18  C   UNL d   1      -0.019   9.095   0.448  0.00  0.00     0.307 C 
ATOM     19  H   UNL d   1       0.846   7.555  -0.561  0.00  0.00     0.316 HD
ENDBRANCH  10  17
BRANCH  11  20
ATOM     20  O   UNL d   1      -1.500   5.674  -1.001  0.00  0.00    -0.386 OA
ATOM     21  H   UNL d   1      -1.241   6.590  -1.239  0.00  0.00     0.210 HD
ENDBRANCH  11  20
ENDBRANCH   7   8
ENDBRANCH   5   7
BRANCH   4  22
ATOM     22  N   UNL d   1       3.891   5.362  -0.796  0.00  0.00     0.085 N 
ATOM     23  H   UNL d   1       3.754   4.363  -0.969  0.00  0.00     0.313 HD
ATOM     24  H   UNL d   1       4.362   5.732  -1.622  0.00  0.00     0.313 HD
ENDBRANCH   4  22
BRANCH   6  25
ATOM     25  O   UNL d   1       4.707   4.067   3.925  0.00  0.00    -0.390 OA
ATOM     26  H   UNL d   1       4.600   3.172   3.551  0.00  0.00     0.210 HD
ENDBRANCH   6  25
BRANCH   1  27
ATOM     27  O   UNL d   1       7.548   5.093   3.507  0.00  0.00    -0.349 OA
BRANCH  27  28
ATOM     28  C   UNL d   1       7.537   4.497   4.808  0.00  0.00     0.299 C 
ATOM     29  C   UNL d   1       8.644   5.214   5.657  0.00  0.00     0.276 C 
ATOM     30  C   UNL d   1       8.836   4.511   7.014  0.00  0.00     0.070 C 
ATOM     31  C   UNL d   1       8.513   3.058   6.985  0.00  0.00     0.009 C 
ATOM     32  C   UNL d   1       8.010   2.433   5.910  0.00  0.00     0.073 C 
ATOM     33  O   UNL d   1       7.731   3.081   4.722  0.00  0.00    -0.321 OA
BRANCH  29  34
ATOM     34  N   UNL d   1       9.944   5.355   4.952  0.00  0.00     0.088 N 
ATOM     35  H   UNL d   1      10.218   4.434   4.615  0.00  0.00     0.313 HD
ATOM     36  H   UNL d   1      10.660   5.665   5.605  0.00  0.00     0.313 HD
ENDBRANCH  29  34
BRANCH  32  37
ATOM     37  C   UNL d   1       7.694   0.958   5.911  0.00  0.00     0.330 C 
BRANCH  37  38
ATOM     38  N   UNL d   1       8.364   0.268   4.814  0.00  0.00     0.084 N 
ATOM     39  H   UNL d   1       8.130   0.764   3.953  0.00  0.00     0.313 HD
ATOM     40  H   UNL d   1       7.975  -0.667   4.723  0.00  0.00     0.313 HD
ENDBRANCH  37  38
ENDBRANCH  32  37
ENDBRANCH  27  28
ENDBRANCH   1  27
BRANCH   2  41
ATOM     41  N   UNL d   1       8.391   4.697   0.750  0.00  0.00     0.085 N 
ATOM     42  H   UNL d   1       9.048   4.822   1.526  0.00  0.00     0.313 HD
ATOM     43  H   UNL d   1       8.749   5.268  -0.015  0.00  0.00     0.313 HD
ENDBRANCH   2  41
TORSDOF 13
