@<TRIPOS>MOLECULE
4F8V_SIS_A_101
 68 70 0 0 0
SMALL
GASTEIGER

@<TRIPOS>ATOM
      1 C           7.5365    4.4973    4.8078 C.3     1  UNL1        0.2172
      2 H           6.5710    4.6991    5.2851 H       1  UNL1        0.1072
      3 C           8.6438    5.2140    5.6573 C.3     1  UNL1        0.0717
      4 H           8.3075    6.2424    5.8430 H       1  UNL1        0.0523
      5 C           8.8362    4.5108    7.0140 C.3     1  UNL1       -0.0102
      6 C           8.5130    3.0576    6.9854 C.2     1  UNL1       -0.0434
      7 C           8.0097    2.4333    5.9103 C.2     1  UNL1        0.1108
      8 C           7.6940    0.9579    5.9106 C.3     1  UNL1        0.0513
      9 N           8.3635    0.2681    4.8142 N.3     1  UNL1       -0.3237
     10 O           7.7309    3.0808    4.7218 O.2     1  UNL1       -0.4653
     11 N           9.9435    5.3553    4.9524 N.3     1  UNL1       -0.3221
     12 O           7.5484    5.0931    3.5072 O.3     1  UNL1       -0.3328
     13 C           6.6333    4.5726    2.5205 C.3     1  UNL1        0.1061
     14 H           6.7498    3.4823    2.4631 H       1  UNL1        0.0640
     15 C           7.0868    5.2204    1.1845 C.3     1  UNL1        0.0355
     16 H           7.2099    6.3007    1.3454 H       1  UNL1        0.0485
     17 C           6.1005    4.9927    0.0554 C.3     1  UNL1       -0.0175
     18 C           4.7280    5.5533    0.4060 C.3     1  UNL1        0.0355
     19 H           4.7947    6.6352    0.5730 H       1  UNL1        0.0485
     20 C           4.1560    4.8946    1.6995 C.3     1  UNL1        0.1051
     21 H           3.8891    3.8475    1.5032 H       1  UNL1        0.0639
     22 C           5.1751    4.9393    2.8710 C.3     1  UNL1        0.1105
     23 H           5.1623    5.9421    3.3144 H       1  UNL1        0.0646
     24 O           4.7068    4.0673    3.9245 O.3     1  UNL1       -0.3865
     25 O           2.9759    5.5552    2.2259 O.3     1  UNL1       -0.3413
     26 C           1.9184    5.7276    1.2927 C.3     1  UNL1        0.1870
     27 H           2.2685    6.3794    0.4917 H       1  UNL1        0.0937
     28 C           0.7411    6.4696    1.9648 C.3     1  UNL1        0.1239
     29 H           1.1010    7.4123    2.3898 H       1  UNL1        0.0661
     30 C          -0.3778    6.7077    0.9171 C.3     1  UNL1        0.0692
     31 H          -1.2932    7.0376    1.4254 H       1  UNL1        0.0517
     32 C          -0.7197    5.3683    0.1702 C.3     1  UNL1        0.1043
     33 C           0.5609    4.6455   -0.2821 C.3     1  UNL1        0.0808
     34 O           1.4788    4.4655    0.7966 O.3     1  UNL1       -0.3459
     35 C          -1.5583    4.4189    1.0327 C.3     1  UNL1       -0.0323
     36 O          -1.5002    5.6742   -1.0013 O.3     1  UNL1       -0.3849
     37 N          -0.0550    7.7482   -0.1145 N.3     1  UNL1       -0.3115
     38 C          -0.0190    9.0949    0.4483 C.3     1  UNL1       -0.0154
     39 O           0.2151    5.7336    3.0794 O.3     1  UNL1       -0.3851
     40 N           3.8909    5.3618   -0.7963 N.3     1  UNL1       -0.3250
     41 N           8.3907    4.6975    0.7497 N.3     1  UNL1       -0.3250
     42 H           8.1930    4.9913    7.7641 H       1  UNL1        0.0325
     43 H           9.8638    4.6398    7.3772 H       1  UNL1        0.0325
     44 H           8.7239    2.4942    7.8907 H       1  UNL1        0.0606
     45 H           6.6089    0.8292    5.8146 H       1  UNL1        0.0502
     46 H           7.9902    0.4870    6.8550 H       1  UNL1        0.0502
     47 H           8.1297    0.7636    3.9529 H       1  UNL1        0.1186
     48 H           7.9746   -0.6673    4.7226 H       1  UNL1        0.1186
     49 H          10.2181    4.4342    4.6147 H       1  UNL1        0.1187
     50 H          10.6597    5.6653    5.6048 H       1  UNL1        0.1187
     51 H           6.0246    3.9209   -0.1759 H       1  UNL1        0.0297
     52 H           6.4732    5.4858   -0.8544 H       1  UNL1        0.0297
     53 H           4.5997    3.1721    3.5511 H       1  UNL1        0.2100
     54 H           1.0531    5.1834   -1.1020 H       1  UNL1        0.0590
     55 H           0.3220    3.6549   -0.6860 H       1  UNL1        0.0590
     56 H          -0.9807    3.9641    1.8427 H       1  UNL1        0.0258
     57 H          -1.9680    3.6057    0.4228 H       1  UNL1        0.0258
     58 H          -2.4152    4.9417    1.4694 H       1  UNL1        0.0258
     59 H          -1.2412    6.5901   -1.2392 H       1  UNL1        0.2103
     60 H           0.8456    7.5553   -0.5612 H       1  UNL1        0.1221
     61 H          -0.9719    9.3581    0.9174 H       1  UNL1        0.0388
     62 H           0.1617    9.8183   -0.3533 H       1  UNL1        0.0388
     63 H           0.7861    9.2178    1.1783 H       1  UNL1        0.0388
     64 H           0.9170    5.1056    3.3415 H       1  UNL1        0.2101
     65 H           3.7544    4.3632   -0.9689 H       1  UNL1        0.1185
     66 H           4.3619    5.7320   -1.6222 H       1  UNL1        0.1185
     67 H           9.0481    4.8225    1.5258 H       1  UNL1        0.1185
     68 H           8.7492    5.2684   -0.0151 H       1  UNL1        0.1185
@<TRIPOS>BOND
     1     1     2    1
     2     1     3    1
     3     1    10    1
     4     1    12    1
     5     3     5    1
     6     3    11    1
     7     3     4    1
     8     5     6    1
     9     5    42    1
    10     5    43    1
    11     6     7    2
    12     6    44    1
    13     7     8    1
    14     7    10    1
    15     8     9    1
    16     8    45    1
    17     8    46    1
    18     9    47    1
    19     9    48    1
    20    11    49    1
    21    11    50    1
    22    13    15    1
    23    13    14    1
    24    13    12    1
    25    15    16    1
    26    15    17    1
    27    15    41    1
    28    17    18    1
    29    17    51    1
    30    17    52    1
    31    18    20    1
    32    18    40    1
    33    18    19    1
    34    20    21    1
    35    20    22    1
    36    20    25    1
    37    22    13    1
    38    22    24    1
    39    22    23    1
    40    24    53    1
    41    26    28    1
    42    26    34    1
    43    26    27    1
    44    26    25    1
    45    28    30    1
    46    28    39    1
    47    28    29    1
    48    30    32    1
    49    30    37    1
    50    30    31    1
    51    32    33    1
    52    32    36    1
    53    32    35    1
    54    33    34    1
    55    33    54    1
    56    33    55    1
    57    35    56    1
    58    35    57    1
    59    35    58    1
    60    36    59    1
    61    37    38    1
    62    37    60    1
    63    38    61    1
    64    38    62    1
    65    38    63    1
    66    39    64    1
    67    40    65    1
    68    40    66    1
    69    41    67    1
    70    41    68    1
