1G4Q_MPD_A_25
 OpenBabel10091713573D
Coordinates from PDB:1G4Q:A:25 Model:1 without hydrogens
  8  7  0  0  0  0  0  0  0  0999 V2000
    2.5050    4.2220   35.4970 C   0  0  0  0  0  0  0  0  0  0  0  0
    3.4140    3.4330   34.6280 C   0  0  0  0  0  0  0  0  0  0  0  0
    4.0970    3.8170   33.4550 O   0  0  0  0  0  0  0  0  0  0  0  0
    2.9790    2.1680   34.0870 C   0  0  0  0  0  0  0  0  0  0  0  0
    4.3940    2.8870   35.6370 C   0  0  0  0  0  0  0  0  0  0  0  0
    5.5270    1.9910   35.0640 C   0  0  1  0  0  0  0  0  0  0  0  0
    4.7250    0.9530   34.4730 O   0  0  0  0  0  0  0  0  0  0  0  0
    6.6210    3.0280   34.7370 C   0  0  0  0  0  0  0  0  0  0  0  0
  1  2  1  0  0  0  0
  2  3  1  0  0  0  0
  2  4  1  0  0  0  0
  2  5  1  0  0  0  0
  5  6  1  0  0  0  0
  6  7  1  0  0  0  0
  6  8  1  6  0  0  0
A    1
C1
A    2
C2
A    3
O2
A    4
CM
A    5
C3
A    6
C4
A    7
O4
A    8
C5
M  END
>  <InstanceId>
1G4Q_MPD_A_25

>  <ChemCompId>
MPD

>  <PdbId>
1G4Q

>  <ChainId>
A

>  <ResidueNumber>
25

>  <InsertionCode>


>  <Model>
1

>  <AltIds>


>  <MissingHeavyAtoms>
0

>  <ObservedFormula>
C6 O2

>  <Name>
(4S)-2-METHYL-2,4-PENTANEDIOL

>  <SystematicName>
(4S)-2-methylpentane-2,4-diol

>  <Synonyms>


>  <Type>
NON-POLYMER

>  <Formula>
C6 H14 O2

>  <MolecularWeight>
118.174

>  <ModifiedDate>
2011-06-04

>  <Parent>


>  <OneLetterCode>


>  <SubcomponentList>


>  <AmbiguousFlag>
N

>  <InChI>
InChI=1S/C6H14O2/c1-5(7)4-6(2,3)8/h5,7-8H,4H2,1-3H3/t5-/m0/s1

>  <InChIKey>
SVTBMSDMJJWYQN-YFKPBYRVSA-N

>  <SMILES>
C[C@@H](CC(C)(C)O)O

$$$$
