@<TRIPOS>MOLECULE
1G4Q_MPD_A_25
 8 7 0 0 0
SMALL
GASTEIGER
****
Coordinates from PDB:1G4Q:A:25 Model:1 without hydrogens
@<TRIPOS>ATOM
      1 C           2.5050    4.2220   35.4970 C.3     1  UNL1        0.0330
      2 C           3.4140    3.4330   34.6280 C.3     1  UNL1        0.1292
      3 O           4.0970    3.8170   33.4550 O.3     1  UNL1       -0.2256
      4 C           2.9790    2.1680   34.0870 C.3     1  UNL1        0.0330
      5 C           4.3940    2.8870   35.6370 C.3     1  UNL1        0.0633
      6 C           5.5270    1.9910   35.0640 C.3     1  UNL1        0.1545
      7 O           4.7250    0.9530   34.4730 O.3     1  UNL1       -0.2231
      8 C           6.6210    3.0280   34.7370 C.3     1  UNL1        0.0356
@<TRIPOS>BOND
     1     1     2    1
     2     2     3    1
     3     2     4    1
     4     2     5    1
     5     5     6    1
     6     6     7    1
     7     6     8    1
