REMARK  2 active torsions:
REMARK  status: ('A' for Active; 'I' for Inactive)
REMARK    1  A    between atoms: C_2  and  C_5 
REMARK    2  A    between atoms: C_5  and  C_6 
ROOT
ATOM      1  C   UNL d   1       2.505   4.222  35.497  0.00  0.00     0.033 C 
ATOM      2  C   UNL d   1       3.414   3.433  34.628  0.00  0.00     0.129 C 
ATOM      3  O   UNL d   1       4.097   3.817  33.455  0.00  0.00    -0.226 OA
ATOM      4  C   UNL d   1       2.979   2.168  34.087  0.00  0.00     0.033 C 
ENDROOT
BRANCH   2   5
ATOM      5  C   UNL d   1       4.394   2.887  35.637  0.00  0.00     0.063 C 
BRANCH   5   6
ATOM      6  C   UNL d   1       5.527   1.991  35.064  0.00  0.00     0.155 C 
ATOM      7  O   UNL d   1       4.725   0.953  34.473  0.00  0.00    -0.223 OA
ATOM      8  C   UNL d   1       6.621   3.028  34.737  0.00  0.00     0.036 C 
ENDBRANCH   5   6
ENDBRANCH   2   5
TORSDOF 2
