1UTS_P13_B_1046
 OpenBabel03221817013D

 63 66  0  0  0  0  0  0  0  0999 V2000
   -0.6455   -1.2958   -0.0130 C   0  0  0  0  0  0  0  0  0  0  0  0
   -1.4358   -0.1337   -0.0278 C   0  0  0  0  0  0  0  0  0  0  0  0
   -0.7487    1.0950    0.0134 C   0  0  0  0  0  0  0  0  0  0  0  0
    0.6633    1.1704    0.0071 C   0  0  0  0  0  0  0  0  0  0  0  0
    1.4117   -0.0162    0.0033 C   0  0  0  0  0  0  0  0  0  0  0  0
    0.7532   -1.2421    0.0181 C   0  0  0  0  0  0  0  0  0  0  0  0
    2.7741    0.1172   -0.0016 O   0  0  0  0  0  0  0  0  0  0  0  0
    3.5103   -0.8970   -0.6902 C   0  0  0  0  0  0  0  0  0  0  0  0
    4.9874   -0.5096   -0.6927 C   0  0  0  0  0  0  0  0  0  0  0  0
    5.5173   -0.3583    0.7337 C   0  0  0  0  0  0  0  0  0  0  0  0
    6.9430   -0.0519    0.7247 N   0  0  0  0  0  0  0  0  0  0  0  0
    1.3400    2.5255   -0.1195 C   0  0  0  0  0  0  0  0  0  0  0  0
    2.1173    2.6912   -1.3681 N   0  0  0  0  0  0  0  0  0  0  0  0
    1.2498    2.5028   -2.5381 C   0  0  0  0  0  0  0  0  0  0  0  0
    1.9429    2.6717   -3.9107 C   0  0  0  0  0  0  0  0  0  0  0  0
    1.0214    2.2732   -4.9851 N   0  0  0  0  0  0  0  0  0  0  0  0
   -0.1527    3.1527   -5.1512 C   0  0  0  0  0  0  0  0  0  0  0  0
   -0.0018    4.3326   -6.1341 C   0  0  0  0  0  0  0  0  0  0  0  0
    0.5560    3.9314   -7.4289 N   0  0  0  0  0  0  0  0  0  0  0  0
    1.8334    3.2449   -7.2011 C   0  0  0  0  0  0  0  0  0  0  0  0
    1.6792    2.0188   -6.2770 C   0  0  0  0  0  0  0  0  0  0  0  0
   -2.9182   -0.2133   -0.1464 C   0  0  0  0  0  0  0  0  0  0  0  0
   -3.6393   -1.3079    0.3788 C   0  0  0  0  0  0  0  0  0  0  0  0
   -5.0284   -1.4347    0.1673 C   0  0  0  0  0  0  0  0  0  0  0  0
   -5.9963   -2.4260    0.5055 C   0  0  0  0  0  0  0  0  0  0  0  0
   -7.2086   -2.0163    0.0027 C   0  0  0  0  0  0  0  0  0  0  0  0
   -7.0220   -0.8028   -0.6050 N   0  0  0  0  0  0  0  0  0  0  0  0
   -7.7426   -0.2633   -1.0633 H   0  0  0  0  0  0  0  0  0  0  0  0
   -5.6978   -0.4349   -0.5309 C   0  0  0  0  0  0  0  0  0  0  0  0
   -5.0402    0.6924   -1.0317 C   0  0  0  0  0  0  0  0  0  0  0  0
   -3.6518    0.7689   -0.8387 C   0  0  0  0  0  0  0  0  0  0  0  0
   -1.1079   -2.2796   -0.0544 H   0  0  0  0  0  0  0  0  0  0  0  0
   -1.3139    2.0254    0.0152 H   0  0  0  0  0  0  0  0  0  0  0  0
    1.2959   -2.1801    0.0411 H   0  0  0  0  0  0  0  0  0  0  0  0
    3.1516   -0.9783   -1.7284 H   0  0  0  0  0  0  0  0  0  0  0  0
    3.4025   -1.8624   -0.1895 H   0  0  0  0  0  0  0  0  0  0  0  0
    5.1169    0.4383   -1.2290 H   0  0  0  0  0  0  0  0  0  0  0  0
    5.5550   -1.2767   -1.2322 H   0  0  0  0  0  0  0  0  0  0  0  0
    5.3485   -1.2815    1.2989 H   0  0  0  0  0  0  0  0  0  0  0  0
    4.9888    0.4492    1.2521 H   0  0  0  0  0  0  0  0  0  0  0  0
    7.4620   -0.8270    0.3158 H   0  0  0  0  0  0  0  0  0  0  0  0
    7.2702    0.0357    1.6865 H   0  0  0  0  0  0  0  0  0  0  0  0
    2.0050    2.6723    0.7398 H   0  0  0  0  0  0  0  0  0  0  0  0
    0.5977    3.3320   -0.0586 H   0  0  0  0  0  0  0  0  0  0  0  0
    2.8355    1.9640   -1.3641 H   0  0  0  0  0  0  0  0  0  0  0  0
    0.4293    3.2197   -2.4499 H   0  0  0  0  0  0  0  0  0  0  0  0
    0.8200    1.4940   -2.5263 H   0  0  0  0  0  0  0  0  0  0  0  0
    2.8132    1.9969   -3.9183 H   0  0  0  0  0  0  0  0  0  0  0  0
    2.3229    3.6901   -4.0456 H   0  0  0  0  0  0  0  0  0  0  0  0
   -0.5012    3.5609   -4.1970 H   0  0  0  0  0  0  0  0  0  0  0  0
   -0.9762    2.5182   -5.4980 H   0  0  0  0  0  0  0  0  0  0  0  0
    0.6266    5.1136   -5.6891 H   0  0  0  0  0  0  0  0  0  0  0  0
   -0.9910    4.7745   -6.3012 H   0  0  0  0  0  0  0  0  0  0  0  0
    0.7029    4.7542   -8.0096 H   0  0  0  0  0  0  0  0  0  0  0  0
    2.5623    3.9468   -6.7787 H   0  0  0  0  0  0  0  0  0  0  0  0
    2.2259    2.9136   -8.1686 H   0  0  0  0  0  0  0  0  0  0  0  0
    2.6574    1.5432   -6.1345 H   0  0  0  0  0  0  0  0  0  0  0  0
    1.0706    1.2725   -6.8048 H   0  0  0  0  0  0  0  0  0  0  0  0
   -3.1359   -2.0889    0.9410 H   0  0  0  0  0  0  0  0  0  0  0  0
   -5.8119   -3.3484    1.0379 H   0  0  0  0  0  0  0  0  0  0  0  0
   -8.1847   -2.4817    0.0241 H   0  0  0  0  0  0  0  0  0  0  0  0
   -5.5702    1.4671   -1.5746 H   0  0  0  0  0  0  0  0  0  0  0  0
   -3.1407    1.6235   -1.2788 H   0  0  0  0  0  0  0  0  0  0  0  0
  1  2  2  0  0  0  0
  1  6  1  0  0  0  0
  1 32  1  0  0  0  0
  2  3  1  0  0  0  0
  2 22  1  0  0  0  0
  3  4  2  0  0  0  0
  3 33  1  0  0  0  0
  4  5  1  0  0  0  0
  4 12  1  0  0  0  0
  5  6  2  0  0  0  0
  5  7  1  0  0  0  0
  6 34  1  0  0  0  0
  7  8  1  0  0  0  0
  8  9  1  0  0  0  0
  8 35  1  0  0  0  0
  8 36  1  0  0  0  0
  9 10  1  0  0  0  0
  9 37  1  0  0  0  0
  9 38  1  0  0  0  0
 10 11  1  0  0  0  0
 10 39  1  0  0  0  0
 10 40  1  0  0  0  0
 11 41  1  0  0  0  0
 11 42  1  0  0  0  0
 12 13  1  0  0  0  0
 12 43  1  0  0  0  0
 12 44  1  0  0  0  0
 13 14  1  0  0  0  0
 13 45  1  0  0  0  0
 14 15  1  0  0  0  0
 14 46  1  0  0  0  0
 14 47  1  0  0  0  0
 15 16  1  0  0  0  0
 15 48  1  0  0  0  0
 15 49  1  0  0  0  0
 16 17  1  0  0  0  0
 16 21  1  0  0  0  0
 17 18  1  0  0  0  0
 17 50  1  0  0  0  0
 17 51  1  0  0  0  0
 18 19  1  0  0  0  0
 18 52  1  0  0  0  0
 18 53  1  0  0  0  0
 19 20  1  0  0  0  0
 19 54  1  0  0  0  0
 20 21  1  0  0  0  0
 20 55  1  0  0  0  0
 20 56  1  0  0  0  0
 21 57  1  0  0  0  0
 21 58  1  0  0  0  0
 22 23  2  0  0  0  0
 22 31  1  0  0  0  0
 23 24  1  0  0  0  0
 23 59  1  0  0  0  0
 24 25  1  0  0  0  0
 24 29  2  0  0  0  0
 25 26  2  0  0  0  0
 25 60  1  0  0  0  0
 26 27  1  0  0  0  0
 26 61  1  0  0  0  0
 27 28  1  0  0  0  0
 27 29  1  0  0  0  0
 29 30  1  0  0  0  0
 30 31  2  0  0  0  0
 30 62  1  0  0  0  0
 31 63  1  0  0  0  0
M  END
$$$$
