REMARK  11 active torsions:
REMARK  status: ('A' for Active; 'I' for Inactive)
REMARK    1  A    between atoms: C_2  and  C_22 
REMARK    2  A    between atoms: C_4  and  C_12 
REMARK    3  A    between atoms: C_5  and  O_7 
REMARK    4  A    between atoms: O_7  and  C_8 
REMARK    5  A    between atoms: C_8  and  C_9 
REMARK    6  A    between atoms: C_9  and  C_10 
REMARK    7  A    between atoms: C_10  and  N_11 
REMARK    8  A    between atoms: C_12  and  N_13 
REMARK    9  A    between atoms: N_13  and  C_14 
REMARK   10  A    between atoms: C_14  and  C_15 
REMARK   11  A    between atoms: C_15  and  N_16 
ROOT
ATOM      1  C   UNL d   1      -0.645  -1.296  -0.013  0.00  0.00     0.015 A 
ATOM      2  C   UNL d   1      -1.436  -0.134  -0.028  0.00  0.00    -0.025 A 
ATOM      3  C   UNL d   1      -0.749   1.095   0.013  0.00  0.00     0.024 A 
ATOM      4  C   UNL d   1       0.663   1.170   0.007  0.00  0.00     0.004 A 
ATOM      5  C   UNL d   1       1.412  -0.016   0.003  0.00  0.00     0.076 A 
ATOM      6  C   UNL d   1       0.753  -1.242   0.018  0.00  0.00     0.038 A 
ENDROOT
BRANCH   4   7
ATOM      7  C   UNL d   1       1.340   2.526  -0.119  0.00  0.00     0.311 C 
BRANCH   7   8
ATOM      8  N   UNL d   1       2.117   2.691  -1.368  0.00  0.00     0.089 N 
ATOM      9  H   UNL d   1       2.836   1.964  -1.364  0.00  0.00     0.316 HD
BRANCH   8  10
ATOM     10  C   UNL d   1       1.250   2.503  -2.538  0.00  0.00     0.300 C 
BRANCH  10  11
ATOM     11  C   UNL d   1       1.943   2.672  -3.911  0.00  0.00     0.302 C 
BRANCH  11  12
ATOM     12  N   UNL d   1       1.021   2.273  -4.985  0.00  0.00     0.093 N 
ATOM     13  C   UNL d   1      -0.153   3.153  -5.151  0.00  0.00     0.302 C 
ATOM     14  C   UNL d   1      -0.002   4.333  -6.134  0.00  0.00     0.299 C 
ATOM     15  N   UNL d   1       0.556   3.931  -7.429  0.00  0.00     0.086 N 
ATOM     16  C   UNL d   1       1.833   3.245  -7.201  0.00  0.00     0.299 C 
ATOM     17  H   UNL d   1       0.703   4.754  -8.010  0.00  0.00     0.315 HD
ATOM     18  C   UNL d   1       1.679   2.019  -6.277  0.00  0.00     0.302 C 
ENDBRANCH  11  12
ENDBRANCH  10  11
ENDBRANCH   8  10
ENDBRANCH   7   8
ENDBRANCH   4   7
BRANCH   5  19
ATOM     19  O   UNL d   1       2.774   0.117  -0.002  0.00  0.00    -0.350 OA
BRANCH  19  20
ATOM     20  C   UNL d   1       3.510  -0.897  -0.690  0.00  0.00     0.177 C 
BRANCH  20  21
ATOM     21  C   UNL d   1       4.987  -0.510  -0.693  0.00  0.00     0.056 C 
BRANCH  21  22
ATOM     22  C   UNL d   1       5.517  -0.358   0.734  0.00  0.00     0.269 C 
BRANCH  22  23
ATOM     23  N   UNL d   1       6.943  -0.052   0.725  0.00  0.00     0.078 N 
ATOM     24  H   UNL d   1       7.462  -0.827   0.316  0.00  0.00     0.312 HD
ATOM     25  H   UNL d   1       7.270   0.036   1.687  0.00  0.00     0.312 HD
ENDBRANCH  22  23
ENDBRANCH  21  22
ENDBRANCH  20  21
ENDBRANCH  19  20
ENDBRANCH   5  19
BRANCH   2  26
ATOM     26  C   UNL d   1      -2.918  -0.213  -0.146  0.00  0.00    -0.025 A 
ATOM     27  C   UNL d   1      -3.639  -1.308   0.379  0.00  0.00     0.026 A 
ATOM     28  C   UNL d   1      -5.028  -1.435   0.167  0.00  0.00    -0.007 A 
ATOM     29  C   UNL d   1      -5.996  -2.426   0.505  0.00  0.00     0.030 A 
ATOM     30  C   UNL d   1      -5.698  -0.435  -0.531  0.00  0.00     0.042 A 
ATOM     31  C   UNL d   1      -7.209  -2.016   0.003  0.00  0.00     0.089 A 
ATOM     32  N   UNL d   1      -7.022  -0.803  -0.605  0.00  0.00    -0.365 N 
ATOM     33  H   UNL d   1      -7.743  -0.263  -1.063  0.00  0.00     0.165 HD
ATOM     34  C   UNL d   1      -5.040   0.692  -1.032  0.00  0.00     0.031 A 
ATOM     35  C   UNL d   1      -3.652   0.769  -0.839  0.00  0.00     0.014 A 
ENDBRANCH   2  26
TORSDOF 11
