@<TRIPOS>MOLECULE
1UTS_P13_B_1046
 63 66 0 0 0
SMALL
GASTEIGER

@<TRIPOS>ATOM
      1 C          -0.6455   -1.2958   -0.0130 C.ar    1  UNL1       -0.0506
      2 C          -1.4358   -0.1337   -0.0278 C.ar    1  UNL1       -0.0173
      3 C          -0.7487    1.0950    0.0134 C.ar    1  UNL1       -0.0461
      4 C           0.6633    1.1704    0.0071 C.ar    1  UNL1        0.0086
      5 C           1.4117   -0.0162    0.0033 C.ar    1  UNL1        0.1249
      6 C           0.7532   -1.2421    0.0181 C.ar    1  UNL1       -0.0191
      7 O           2.7741    0.1172   -0.0016 O.3     1  UNL1       -0.4916
      8 C           3.5103   -0.8970   -0.6902 C.3     1  UNL1        0.0907
      9 C           4.9874   -0.5096   -0.6927 C.3     1  UNL1       -0.0063
     10 C           5.5173   -0.3583    0.7337 C.3     1  UNL1       -0.0038
     11 N           6.9430   -0.0519    0.7247 N.3     1  UNL1       -0.3299
     12 C           1.3400    2.5255   -0.1195 C.3     1  UNL1        0.0248
     13 N           2.1173    2.6912   -1.3681 N.3     1  UNL1       -0.3107
     14 C           1.2498    2.5028   -2.5381 C.3     1  UNL1        0.0090
     15 C           1.9429    2.6717   -3.9107 C.3     1  UNL1        0.0115
     16 N           1.0214    2.2732   -4.9851 N.3     1  UNL1       -0.2987
     17 C          -0.1527    3.1527   -5.1512 C.3     1  UNL1        0.0115
     18 C          -0.0018    4.3326   -6.1341 C.3     1  UNL1        0.0087
     19 N           0.5560    3.9314   -7.4289 N.3     1  UNL1       -0.3136
     20 C           1.8334    3.2449   -7.2011 C.3     1  UNL1        0.0087
     21 C           1.6792    2.0188   -6.2770 C.3     1  UNL1        0.0115
     22 C          -2.9182   -0.2133   -0.1464 C.ar    1  UNL1       -0.0172
     23 C          -3.6393   -1.3079    0.3788 C.ar    1  UNL1       -0.0449
     24 C          -5.0284   -1.4347    0.1673 C.ar    1  UNL1        0.0002
     25 C          -5.9963   -2.4260    0.5055 C.ar    1  UNL1       -0.0366
     26 C          -7.2086   -2.0163    0.0027 C.ar    1  UNL1        0.0027
     27 N          -7.0220   -0.8028   -0.6050 N.ar    1  UNL1       -0.3606
     28 H          -7.7426   -0.2633   -1.0633 H       1  UNL1        0.1653
     29 C          -5.6978   -0.4349   -0.5309 C.ar    1  UNL1        0.0465
     30 C          -5.0402    0.6924   -1.0317 C.ar    1  UNL1       -0.0372
     31 C          -3.6518    0.7689   -0.8387 C.ar    1  UNL1       -0.0521
     32 H          -1.1079   -2.2796   -0.0544 H       1  UNL1        0.0625
     33 H          -1.3139    2.0254    0.0152 H       1  UNL1        0.0628
     34 H           1.2959   -2.1801    0.0411 H       1  UNL1        0.0654
     35 H           3.1516   -0.9783   -1.7284 H       1  UNL1        0.0697
     36 H           3.4025   -1.8624   -0.1895 H       1  UNL1        0.0697
     37 H           5.1169    0.4383   -1.2290 H       1  UNL1        0.0310
     38 H           5.5550   -1.2767   -1.2322 H       1  UNL1        0.0310
     39 H           5.3485   -1.2815    1.2989 H       1  UNL1        0.0423
     40 H           4.9888    0.4492    1.2521 H       1  UNL1        0.0423
     41 H           7.4620   -0.8270    0.3158 H       1  UNL1        0.1182
     42 H           7.2702    0.0357    1.6865 H       1  UNL1        0.1182
     43 H           2.0050    2.6723    0.7398 H       1  UNL1        0.0475
     44 H           0.5977    3.3320   -0.0586 H       1  UNL1        0.0475
     45 H           2.8355    1.9640   -1.3641 H       1  UNL1        0.1223
     46 H           0.4293    3.2197   -2.4499 H       1  UNL1        0.0437
     47 H           0.8200    1.4940   -2.5263 H       1  UNL1        0.0437
     48 H           2.8132    1.9969   -3.9183 H       1  UNL1        0.0439
     49 H           2.3229    3.6901   -4.0456 H       1  UNL1        0.0439
     50 H          -0.5012    3.5609   -4.1970 H       1  UNL1        0.0439
     51 H          -0.9762    2.5182   -5.4980 H       1  UNL1        0.0439
     52 H           0.6266    5.1136   -5.6891 H       1  UNL1        0.0437
     53 H          -0.9910    4.7745   -6.3012 H       1  UNL1        0.0437
     54 H           0.7029    4.7542   -8.0096 H       1  UNL1        0.1220
     55 H           2.5623    3.9468   -6.7787 H       1  UNL1        0.0437
     56 H           2.2259    2.9136   -8.1686 H       1  UNL1        0.0437
     57 H           2.6574    1.5432   -6.1345 H       1  UNL1        0.0439
     58 H           1.0706    1.2725   -6.8048 H       1  UNL1        0.0439
     59 H          -3.1359   -2.0889    0.9410 H       1  UNL1        0.0630
     60 H          -5.8119   -3.3484    1.0379 H       1  UNL1        0.0638
     61 H          -8.1847   -2.4817    0.0241 H       1  UNL1        0.0807
     62 H          -5.5702    1.4671   -1.5746 H       1  UNL1        0.0638
     63 H          -3.1407    1.6235   -1.2788 H       1  UNL1        0.0624
@<TRIPOS>BOND
     1     1     2   ar
     2     1     6   ar
     3     1    32    1
     4     2     3   ar
     5     2    22    1
     6     3     4   ar
     7     3    33    1
     8     4     5   ar
     9     4    12    1
    10     5     6   ar
    11     5     7    1
    12     6    34    1
    13     7     8    1
    14     8     9    1
    15     8    35    1
    16     8    36    1
    17     9    10    1
    18     9    37    1
    19     9    38    1
    20    10    11    1
    21    10    39    1
    22    10    40    1
    23    11    41    1
    24    11    42    1
    25    12    13    1
    26    12    43    1
    27    12    44    1
    28    13    14    1
    29    13    45    1
    30    14    15    1
    31    14    46    1
    32    14    47    1
    33    15    16    1
    34    15    48    1
    35    15    49    1
    36    16    17    1
    37    16    21    1
    38    17    18    1
    39    17    50    1
    40    17    51    1
    41    18    19    1
    42    18    52    1
    43    18    53    1
    44    19    20    1
    45    19    54    1
    46    20    21    1
    47    20    55    1
    48    20    56    1
    49    21    57    1
    50    21    58    1
    51    22    23   ar
    52    22    31   ar
    53    23    24   ar
    54    23    59    1
    55    24    25   ar
    56    24    29   ar
    57    25    26   ar
    58    25    60    1
    59    26    27   ar
    60    26    61    1
    61    27    28    1
    62    27    29   ar
    63    29    30   ar
    64    30    31   ar
    65    30    62    1
    66    31    63    1
