3SKZ_GMP_A_120
 OpenBabel03221817313D

 33 35  0  0  1  0  0  0  0  0999 V2000
    1.0887   -0.3395   -0.2542 O   0  0  0  0  0  0  0  0  0  0  0  0
    2.3761    0.0640    0.2109 C   0  0  0  0  0  0  0  0  0  0  0  0
    2.8882   -0.8858    1.2937 C   0  0  1  0  0  0  0  0  0  0  0  0
    3.8737   -0.5314    1.6223 H   0  0  0  0  0  0  0  0  0  0  0  0
    2.0217   -0.8544    2.4442 O   0  0  0  0  0  0  0  0  0  0  0  0
    2.2094   -2.1098    3.1159 C   0  0  2  0  0  0  0  0  0  0  0  0
    3.0493   -2.0065    3.8141 H   0  0  0  0  0  0  0  0  0  0  0  0
    2.4861   -3.1547    2.0316 C   0  0  1  0  0  0  0  0  0  0  0  0
    1.5731   -3.6943    1.7532 H   0  0  0  0  0  0  0  0  0  0  0  0
    2.9699   -2.3404    0.8351 C   0  0  2  0  0  0  0  0  0  0  0  0
    2.3266   -2.5398   -0.0282 H   0  0  0  0  0  0  0  0  0  0  0  0
    4.3078   -2.6741    0.4594 O   0  0  0  0  0  0  0  0  0  0  0  0
    3.4623   -4.1314    2.4225 O   0  0  0  0  0  0  0  0  0  0  0  0
    1.0392   -2.4353    3.9125 N   0  0  0  0  0  0  0  0  0  0  0  0
   -0.1311   -1.7267    4.0026 C   0  0  0  0  0  0  0  0  0  0  0  0
   -0.9994   -2.3036    4.8106 N   0  0  0  0  0  0  0  0  0  0  0  0
   -0.3539   -3.4245    5.2612 C   0  0  0  0  0  0  0  0  0  0  0  0
   -0.7891   -4.4517    6.1807 C   0  0  0  0  0  0  0  0  0  0  0  0
   -1.8748   -4.5048    6.7470 O   0  0  0  0  0  0  0  0  0  0  0  0
    0.1882   -5.4199    6.3765 N   0  0  0  0  0  0  0  0  0  0  0  0
   -0.0581   -6.1344    7.0397 H   0  0  0  0  0  0  0  0  0  0  0  0
    1.4336   -5.4176    5.7781 C   0  0  0  0  0  0  0  0  0  0  0  0
    2.2530   -6.4411    6.1221 N   0  0  0  0  0  0  0  0  0  0  0  0
    1.8342   -4.5066    4.9270 N   0  0  0  0  0  0  0  0  0  0  0  0
    0.9078   -3.5346    4.7193 C   0  0  0  0  0  0  0  0  0  0  0  0
    0.7735    0.3606   -0.8525 H   0  0  0  0  0  0  0  0  0  0  0  0
    2.2816    1.0780    0.6128 H   0  0  0  0  0  0  0  0  0  0  0  0
    3.0604    0.0778   -0.6435 H   0  0  0  0  0  0  0  0  0  0  0  0
    4.4790   -3.5499    0.8664 H   0  0  0  0  0  0  0  0  0  0  0  0
    3.1296   -4.5164    3.2632 H   0  0  0  0  0  0  0  0  0  0  0  0
   -0.2961   -0.8018    3.4632 H   0  0  0  0  0  0  0  0  0  0  0  0
    1.8444   -7.3118    6.4324 H   0  0  0  0  0  0  0  0  0  0  0  0
    3.0691   -6.5533    5.5301 H   0  0  0  0  0  0  0  0  0  0  0  0
  1  2  1  0  0  0  0
  1 26  1  0  0  0  0
  2  3  1  0  0  0  0
  2 27  1  0  0  0  0
  2 28  1  0  0  0  0
  3  4  1  0  0  0  0
  3  5  1  0  0  0  0
  3 10  1  6  0  0  0
  5  6  1  0  0  0  0
  6  8  1  6  0  0  0
  6 14  1  0  0  0  0
  6  7  1  0  0  0  0
  8  9  1  6  0  0  0
  8 13  1  0  0  0  0
 10  8  1  1  0  0  0
 10 11  1  0  0  0  0
 10 12  1  0  0  0  0
 12 29  1  0  0  0  0
 13 30  1  0  0  0  0
 14 15  1  0  0  0  0
 14 25  1  0  0  0  0
 15 16  2  0  0  0  0
 15 31  1  0  0  0  0
 16 17  1  0  0  0  0
 17 18  1  0  0  0  0
 17 25  2  0  0  0  0
 18 19  2  0  0  0  0
 18 20  1  0  0  0  0
 20 21  1  0  0  0  0
 20 22  1  0  0  0  0
 22 23  1  0  0  0  0
 22 24  2  0  0  0  0
 23 32  1  0  0  0  0
 23 33  1  0  0  0  0
 24 25  1  0  0  0  0
M  END
$$$$
