@<TRIPOS>MOLECULE
3SKZ_GMP_A_120
 33 35 0 0 0
SMALL
GASTEIGER

@<TRIPOS>ATOM
      1 O5*         1.0887   -0.3395   -0.2542 O.3     1    G1       -0.3924
      2 C5*         2.3761    0.0640    0.2109 C.3     1    G1        0.0730
      3 C4*         2.8882   -0.8858    1.2937 C.3     1    G1        0.1126
      4 H4*         3.8737   -0.5314    1.6223 H       1    G1        0.0647
      5 O4*         2.0217   -0.8544    2.4442 O.3     1    G1       -0.3457
      6 C1*         2.2094   -2.1098    3.1159 C.3     1    G1        0.1667
      7 H1*         3.0493   -2.0065    3.8141 H       1    G1        0.0866
      8 C2*         2.4861   -3.1547    2.0316 C.3     1    G1        0.1285
      9 H2*         1.5731   -3.6943    1.7532 H       1    G1        0.0665
     10 C3*         2.9699   -2.3404    0.8351 C.3     1    G1        0.1135
     11 H3*         2.3266   -2.5398   -0.0282 H       1    G1        0.0647
     12 O3*         4.3078   -2.6741    0.4594 O.3     1    G1       -0.3864
     13 O2*         3.4623   -4.1314    2.4225 O.3     1    G1       -0.3847
     14 N9          1.0392   -2.4353    3.9125 N.ar    1    G1       -0.2854
     15 C8         -0.1311   -1.7267    4.0026 C.ar    1    G1        0.1005
     16 N7         -0.9994   -2.3036    4.8106 N.ar    1    G1       -0.2286
     17 C5         -0.3539   -3.4245    5.2612 C.ar    1    G1        0.1721
     18 C6         -0.7891   -4.4517    6.1807 C.ar    1    G1        0.2803
     19 O6         -1.8748   -4.5048    6.7470 O.2     1    G1       -0.2654
     20 N1          0.1882   -5.4199    6.3765 N.ar    1    G1       -0.2934
     21 H1         -0.0581   -6.1344    7.0397 H       1    G1        0.1716
     22 C2          1.4336   -5.4176    5.7781 C.ar    1    G1        0.1950
     23 N2          2.2530   -6.4411    6.1221 N.pl3   1    G1       -0.3289
     24 N3          1.8342   -4.5066    4.9270 N.ar    1    G1       -0.1963
     25 C4          0.9078   -3.5346    4.7193 C.ar    1    G1        0.1712
     26 H5*         0.7735    0.3606   -0.8525 H       1    G1        0.2095
     27 H5*1        2.2816    1.0780    0.6128 H       1    G1        0.0584
     28 H5*2        3.0604    0.0778   -0.6435 H       1    G1        0.0584
     29 H3*         4.4790   -3.5499    0.8664 H       1    G1        0.2100
     30 H2*         3.1296   -4.5164    3.2632 H       1    G1        0.2101
     31 H8         -0.2961   -0.8018    3.4632 H       1    G1        0.1030
     32 H21         1.8444   -7.3118    6.4324 H       1    G1        0.1451
     33 H22         3.0691   -6.5533    5.5301 H       1    G1        0.1451
@<TRIPOS>BOND
     1     1     2    1
     2     1    26    1
     3     2     3    1
     4     2    27    1
     5     2    28    1
     6     3     4    1
     7     3     5    1
     8     3    10    1
     9     5     6    1
    10     6     8    1
    11     6    14    1
    12     6     7    1
    13     8     9    1
    14     8    13    1
    15    10     8    1
    16    10    11    1
    17    10    12    1
    18    12    29    1
    19    13    30    1
    20    14    15   ar
    21    14    25   ar
    22    15    16   ar
    23    15    31    1
    24    16    17   ar
    25    17    18   ar
    26    17    25   ar
    27    18    19    2
    28    18    20   ar
    29    20    21    1
    30    20    22   ar
    31    22    23    1
    32    22    24   ar
    33    23    32    1
    34    23    33    1
    35    24    25   ar
