REMARK  6 active torsions:
REMARK  status: ('A' for Active; 'I' for Inactive)
REMARK    1  A    between atoms: O5*_1  and  C5*_2 
REMARK    2  A    between atoms: C5*_2  and  C4*_3 
REMARK    3  A    between atoms: C1*_5  and  N9_10 
REMARK    4  A    between atoms: C2*_6  and  O2*_9 
REMARK    5  A    between atoms: C3*_7  and  O3*_8 
REMARK    6  A    between atoms: C2_18  and  N2_19 
ROOT
ATOM      1  N9   G1 d           1.039  -2.435   3.913  0.00  0.00    -0.293 N 
ATOM      2  C8   G1 d          -0.131  -1.727   4.003  0.00  0.00     0.214 A 
ATOM      3  N7   G1 d          -0.999  -2.304   4.811  0.00  0.00    -0.234 NA
ATOM      4  C5   G1 d          -0.354  -3.425   5.261  0.00  0.00     0.173 A 
ATOM      5  C6   G1 d          -0.789  -4.452   6.181  0.00  0.00     0.292 A 
ATOM      6  O6   G1 d          -1.875  -4.505   6.747  0.00  0.00    -0.265 OA
ATOM      7  N1   G1 d           0.188  -5.420   6.377  0.00  0.00    -0.152 N 
ATOM      8  H1   G1 d          -0.058  -6.134   7.040  0.00  0.00     0.187 HD
ATOM      9  C2   G1 d           1.434  -5.418   5.778  0.00  0.00     0.703 A 
ATOM     10  N3   G1 d           1.834  -4.507   4.927  0.00  0.00    -0.044 NA
ATOM     11  C4   G1 d           0.908  -3.535   4.719  0.00  0.00     0.186 A 
ENDROOT
BRANCH   1  12
ATOM     12  C1*  G1 d           2.209  -2.110   3.116  0.00  0.00     0.262 C 
ATOM     13  O4*  G1 d           2.022  -0.854   2.444  0.00  0.00    -0.353 OA
ATOM     14  C4*  G1 d           2.888  -0.886   1.294  0.00  0.00     0.179 C 
ATOM     15  C3*  G1 d           2.970  -2.340   0.835  0.00  0.00     0.182 C 
ATOM     16  C2*  G1 d           2.486  -3.155   2.032  0.00  0.00     0.198 C 
BRANCH  14  17
ATOM     17  C5*  G1 d           2.376   0.064   0.211  0.00  0.00     0.198 C 
BRANCH  17  18
ATOM     18  O5*  G1 d           1.089  -0.340  -0.254  0.00  0.00    -0.398 OA
ATOM     19  H5*  G1 d           0.773   0.361  -0.853  0.00  0.00     0.209 HD
ENDBRANCH  17  18
ENDBRANCH  14  17
BRANCH  15  20
ATOM     20  O3*  G1 d           4.308  -2.674   0.459  0.00  0.00    -0.390 OA
ATOM     21  H3*  G1 d           4.479  -3.550   0.866  0.00  0.00     0.210 HD
ENDBRANCH  15  20
BRANCH  16  22
ATOM     22  O2*  G1 d           3.462  -4.131   2.422  0.00  0.00    -0.388 OA
ATOM     23  H2*  G1 d           3.130  -4.516   3.263  0.00  0.00     0.210 HD
ENDBRANCH  16  22
ENDBRANCH   1  12
BRANCH   9  24
ATOM     24  N2   G1 d           2.253  -6.441   6.122  0.00  0.00    -0.233 N 
ATOM     25  H21  G1 d           1.844  -7.312   6.432  0.00  0.00     0.174 HD
ATOM     26  H22  G1 d           3.069  -6.553   5.530  0.00  0.00     0.174 HD
ENDBRANCH   9  24
TORSDOF 6
