untitled
 OpenBabel10091713583D

 64 69  0  0  1  0  0  0  0  0999 V2000
  -10.6710   10.5950   27.8670 P   0  0  0  0  0  0  0  0  0  0  0  0
  -14.3580    6.3300   26.3620 P   0  0  2  0  0  0  0  0  0  0  0  0
  -11.9740    8.8160   29.2430 C   0  0  0  0  0  0  0  0  0  0  0  0
  -12.0330   10.0070   28.4680 O   0  0  0  0  0  0  0  0  0  0  0  0
  -13.3760    8.3290   29.5690 C   0  0  1  0  0  0  0  0  0  0  0  0
  -14.0870    9.3330   30.3020 O   0  0  0  0  0  0  0  0  0  0  0  0
  -14.2110    8.0380   28.3350 C   0  0  1  0  0  0  0  0  0  0  0  0
  -14.1090    6.6880   27.9070 O   0  0  0  0  0  0  0  0  0  0  0  0
  -15.6150    8.3780   28.7640 C   0  0  1  0  0  0  0  0  0  0  0  0
  -16.2630    7.2400   29.3430 O   0  0  0  0  0  0  0  0  0  0  0  0
  -15.4320    9.4550   29.8170 C   0  0  2  0  0  0  0  0  0  0  0  0
  -11.2060    9.3210   23.2830 C   0  0  1  0  0  0  0  0  0  0  0  0
  -18.7800   12.7960   27.5030 N   0  0  0  0  0  2  0  0  0  0  0  0
  -18.9780   11.4970   27.8660 C   0  0  1  0  0  3  0  0  0  0  0  0
  -10.7030   10.1030   24.4820 C   0  0  1  0  0  0  0  0  0  0  0  0
  -20.1910   10.9410   27.6200 N   0  0  0  0  0  0  0  0  0  0  0  0
  -11.0900    9.2450   25.6550 C   0  0  0  0  0  0  0  0  0  0  0  0
  -18.0040   10.7460   28.4610 N   0  0  0  0  0  2  0  0  0  0  0  0
  -16.7790   11.2760   28.7180 C   0  0  2  0  0  3  0  0  0  0  0  0
  -10.9720    7.8410   25.0860 C   0  0  2  0  0  0  0  0  0  0  0  0
  -11.3510    7.9580   23.7070 O   0  0  0  0  0  0  0  0  0  0  0  0
  -16.5120   12.6710   28.3430 C   0  0  1  0  0  3  0  0  0  0  0  0
  -11.8430    6.8240   25.8060 C   0  0  0  0  0  0  0  0  0  0  0  0
  -13.2090    7.1260   25.5800 O   0  0  0  0  0  0  0  0  0  0  0  0
  -17.6070   13.4350   27.7100 C   0  0  0  0  0  0  0  0  0  0  0  0
  -17.4340   14.7340   27.3340 O   0  0  0  0  0  0  0  0  0  0  0  0
  -15.2490   12.9410   28.7010 N   0  0  0  0  0  2  0  0  0  0  0  0
  -14.7360   11.8170   29.2600 C   0  0  0  0  0  2  0  0  0  0  0  0
  -15.6500   10.8200   29.2630 N   0  0  1  0  0  0  0  0  0  0  0  0
  -13.5680   13.1730   20.6330 N   0  0  0  0  0  2  0  0  0  0  0  0
  -15.9450    6.9280   25.8330 O   0  0  0  0  0  1  0  0  0  0  0  0
  -12.2430   12.9420   20.8350 C   0  0  2  0  0  3  0  0  0  0  0  0
  -11.3450   13.7980   20.2960 N   0  0  0  0  0  0  0  0  0  0  0  0
  -14.1990    4.5770   26.1050 O   0  0  0  0  0  0  0  0  0  0  0  0
  -11.7900   11.8810   21.5550 N   0  0  0  0  0  2  0  0  0  0  0  0
  -12.6480   10.9950   22.1120 C   0  0  2  0  0  3  0  0  0  0  0  0
  -14.0850   11.1950   21.9350 C   0  0  1  0  0  3  0  0  0  0  0  0
  -14.5210   12.3610   21.1430 C   0  0  0  0  0  0  0  0  0  0  0  0
  -15.8400   12.6060   20.9290 O   0  0  0  0  0  0  0  0  0  0  0  0
  -14.6920   10.1930   22.5820 N   0  0  0  0  0  2  0  0  0  0  0  0
  -13.7310    9.4100   23.1360 C   0  0  0  0  0  2  0  0  0  0  0  0
  -12.5070    9.8940   22.8490 N   0  0  2  0  0  0  0  0  0  0  0  0
  -10.9390   12.1810   27.1060 O   0  0  0  0  0  0  0  0  0  0  0  0
   -9.4540   10.7400   29.1590 O   0  0  0  0  0  0  0  0  0  0  0  0
   -9.2830   10.2540   24.4240 O   0  0  0  0  0  0  0  0  0  0  0  0
  -11.4575    8.0599   28.6895 H   0  0  0  0  0  0  0  0  0  0  0  0
  -11.4554    9.0204   30.1563 H   0  0  0  0  0  0  0  0  0  0  0  0
  -13.2414    7.4273   30.1291 H   0  0  0  0  0  0  0  0  0  0  0  0
  -13.8818    8.6048   27.4892 H   0  0  0  0  0  0  0  0  0  0  0  0
  -16.2218    8.6923   27.9407 H   0  0  0  0  0  0  0  0  0  0  0  0
  -15.7433    6.9211   30.0974 H   0  0  0  0  0  0  0  0  0  0  0  0
  -16.1513    9.3243   30.5983 H   0  0  0  0  0  0  0  0  0  0  0  0
  -10.5321    9.3723   22.4535 H   0  0  0  0  0  0  0  0  0  0  0  0
  -11.1109   11.0909   24.5333 H   0  0  0  0  0  0  0  0  0  0  0  0
  -20.7973   11.6306   27.1759 H   0  0  0  0  0  0  0  0  0  0  0  0
  -20.6096   10.6359   28.4986 H   0  0  0  0  0  0  0  0  0  0  0  0
  -12.0910    9.4513   25.9719 H   0  0  0  0  0  0  0  0  0  0  0  0
  -10.4837    9.4072   26.5216 H   0  0  0  0  0  0  0  0  0  0  0  0
   -9.9745    7.4740   25.2092 H   0  0  0  0  0  0  0  0  0  0  0  0
  -11.6390    6.8597   26.8558 H   0  0  0  0  0  0  0  0  0  0  0  0
  -11.6285    5.8441   25.4335 H   0  0  0  0  0  0  0  0  0  0  0  0
  -11.8380   14.5341   19.7905 H   0  0  0  0  0  0  0  0  0  0  0  0
  -10.7370   13.2919   19.6521 H   0  0  0  0  0  0  0  0  0  0  0  0
   -8.8665    9.3793   24.3762 H   0  0  0  0  0  0  0  0  0  0  0  0
  1  4  1  0  0  0  0
  1 43  2  0  0  0  0
  1 44  2  0  0  0  0
  2 24  1  0  0  0  0
  2 31  1  6  0  0  0
  2 34  2  0  0  0  0
  3  5  1  0  0  0  0
  3 46  1  0  0  0  0
  3 47  1  0  0  0  0
  4  3  1  0  0  0  0
  5  6  1  0  0  0  0
  5  7  1  0  0  0  0
  5 48  1  1  0  0  0
  6 11  1  0  0  0  0
  7  8  1  0  0  0  0
  7  9  1  0  0  0  0
  7 49  1  6  0  0  0
  8  2  1  0  0  0  0
  9 10  1  0  0  0  0
  9 11  1  0  0  0  0
  9 50  1  6  0  0  0
 10 51  1  0  0  0  0
 11 29  1  0  0  0  0
 11 52  1  1  0  0  0
 12 42  1  0  0  0  0
 12 53  1  6  0  0  0
 13 14  1  0  0  0  0
 14 16  1  6  0  0  0
 14 18  1  0  0  0  0
 15 12  1  0  0  0  0
 15 45  1  0  0  0  0
 15 54  1  1  0  0  0
 16 55  1  0  0  0  0
 16 56  1  0  0  0  0
 17 15  1  0  0  0  0
 17 57  1  0  0  0  0
 17 58  1  0  0  0  0
 19 18  1  6  0  0  0
 20 17  1  0  0  0  0
 20 21  1  0  0  0  0
 20 59  1  1  0  0  0
 21 12  1  0  0  0  0
 22 19  1  0  0  0  0
 22 25  1  1  0  0  0
 23 20  1  0  0  0  0
 23 60  1  0  0  0  0
 23 61  1  0  0  0  0
 24 23  1  0  0  0  0
 25 13  1  0  0  0  0
 25 26  2  0  0  0  0
 27 22  1  0  0  0  0
 28 27  1  0  0  0  0
 29 19  1  0  0  0  0
 29 28  1  1  0  0  0
 30 32  1  0  0  0  0
 32 33  1  6  0  0  0
 32 35  1  0  0  0  0
 33 62  1  0  0  0  0
 33 63  1  0  0  0  0
 36 35  1  1  0  0  0
 37 36  1  0  0  0  0
 37 38  1  6  0  0  0
 38 30  1  0  0  0  0
 38 39  2  0  0  0  0
 40 37  1  0  0  0  0
 41 40  1  0  0  0  0
 42 36  1  0  0  0  0
 42 41  1  1  0  0  0
 45 64  1  0  0  0  0
M  END
$$$$
