@<TRIPOS>MOLECULE
3Q3Z_C2E_V_1
 46 52 0 0 0
SMALL
GASTEIGER
****
Coordinates from PDB:3Q3Z:V:1 Model:1 without hydrogens
@<TRIPOS>ATOM
      1 P         -10.6710   10.5950   27.8670 P.3     1  UNL1        0.2141
      2 O          -9.4540   10.7400   29.1590 O.3     1  UNL1       -0.4373
      3 O         -10.9390   12.1810   27.1060 O.2     1  UNL1       -0.5172
      4 O         -12.0330   10.0070   28.4680 O.3     1  UNL1       -0.3114
      5 C         -11.9740    8.8160   29.2430 C.3     1  UNL1        0.1812
      6 C         -13.3760    8.3290   29.5690 C.3     1  UNL1        0.1773
      7 O         -14.0870    9.3330   30.3020 O.3     1  UNL1       -0.3307
      8 C         -14.2110    8.0380   28.3350 C.3     1  UNL1        0.1860
      9 O         -14.1090    6.6880   27.9070 O.3     1  UNL1       -0.3112
     10 C         -15.6150    8.3780   28.7640 C.3     1  UNL1        0.2309
     11 O         -16.2630    7.2400   29.3430 O.3     1  UNL1       -0.2156
     12 C         -15.4320    9.4550   29.8170 C.3     1  UNL1        0.2408
     13 N         -15.6500   10.8200   29.2630 N.ar    1  UNL1       -0.2693
     14 C         -14.7360   11.8170   29.2600 C.ar    1  UNL1        0.1817
     15 N         -15.2490   12.9410   28.7010 N.ar    1  UNL1       -0.2173
     16 C         -16.5120   12.6710   28.3430 C.ar    1  UNL1        0.1748
     17 C         -17.6070   13.4350   27.7100 C.ar    1  UNL1        0.3023
     18 O         -17.4340   14.7340   27.3340 O.2     1  UNL1       -0.2633
     19 N         -18.7800   12.7960   27.5030 N.ar    1  UNL1       -0.1709
     20 C         -18.9780   11.4970   27.8660 C.ar    1  UNL1        0.2606
     21 N         -20.1910   10.9410   27.6200 N.pl3   1  UNL1       -0.0859
     22 N         -18.0040   10.7460   28.4610 N.ar    1  UNL1       -0.1918
     23 C         -16.7790   11.2760   28.7180 C.ar    1  UNL1        0.1723
     24 P         -14.3580    6.3300   26.3620 P.3     1  UNL1        0.2141
     25 O         -14.1990    4.5770   26.1050 O.3     1  UNL1       -0.4373
     26 O         -15.9450    6.9280   25.8330 O.2     1  UNL1       -0.5172
     27 O         -13.2090    7.1260   25.5800 O.3     1  UNL1       -0.3114
     28 C         -11.8430    6.8240   25.8060 C.3     1  UNL1        0.1812
     29 C         -10.9720    7.8410   25.0860 C.3     1  UNL1        0.1773
     30 O         -11.3510    7.9580   23.7070 O.3     1  UNL1       -0.3307
     31 C         -11.0900    9.2450   25.6550 C.3     1  UNL1        0.1860
     32 O         -10.2460    9.4870   26.7780 O.3     1  UNL1       -0.3112
     33 C         -10.7030   10.1030   24.4820 C.3     1  UNL1        0.2309
     34 O          -9.2830   10.2540   24.4240 O.3     1  UNL1       -0.2156
     35 C         -11.2060    9.3210   23.2830 C.3     1  UNL1        0.2408
     36 N         -12.5070    9.8940   22.8490 N.ar    1  UNL1       -0.2693
     37 C         -13.7310    9.4100   23.1360 C.ar    1  UNL1        0.1817
     38 N         -14.6920   10.1930   22.5820 N.ar    1  UNL1       -0.2173
     39 C         -14.0850   11.1950   21.9350 C.ar    1  UNL1        0.1748
     40 C         -14.5210   12.3610   21.1430 C.ar    1  UNL1        0.3023
     41 O         -15.8400   12.6060   20.9290 O.2     1  UNL1       -0.2633
     42 N         -13.5680   13.1730   20.6330 N.ar    1  UNL1       -0.1709
     43 C         -12.2430   12.9420   20.8350 C.ar    1  UNL1        0.2606
     44 N         -11.3450   13.7980   20.2960 N.pl3   1  UNL1       -0.0859
     45 N         -11.7900   11.8810   21.5550 N.ar    1  UNL1       -0.1918
     46 C         -12.6480   10.9950   22.1120 C.ar    1  UNL1        0.1723
@<TRIPOS>BOND
     1     1     2    1
     2     3     1    2
     3     4     1    1
     4     5     4    1
     5     6     7    1
     6     6     5    1
     7     8     6    1
     8     8     9    1
     9     9    24    1
    10    10     8    1
    11    10    12    1
    12    10    11    1
    13    12     7    1
    14    12    13    1
    15    13    23   ar
    16    13    14   ar
    17    14    15   ar
    18    16    15   ar
    19    16    17   ar
    20    17    18    2
    21    19    17   ar
    22    20    19   ar
    23    21    20    1
    24    22    20   ar
    25    22    23   ar
    26    23    16   ar
    27    24    25    1
    28    24    27    1
    29    26    24    2
    30    28    27    1
    31    29    28    1
    32    29    30    1
    33    29    31    1
    34    30    35    1
    35    31    33    1
    36    31    32    1
    37    32     1    1
    38    33    34    1
    39    35    33    1
    40    35    36    1
    41    36    46   ar
    42    37    38   ar
    43    37    36   ar
    44    38    39   ar
    45    39    46   ar
    46    39    40   ar
    47    40    41    2
    48    40    42   ar
    49    43    42   ar
    50    43    44    1
    51    45    43   ar
    52    46    45   ar
