REMARK  2 active torsions:
REMARK  status: ('A' for Active; 'I' for Inactive)
REMARK    1  A    between atoms: C_12  and  N_13 
REMARK    2  A    between atoms: C_35  and  N_36 
ROOT
ATOM      1  P   UNL d   1     -10.671  10.595  27.867  0.00  0.00     0.410 P 
ATOM      2  O   UNL d   1      -9.454  10.740  29.159  0.00  0.00    -0.624 OA
ATOM      3  O   UNL d   1     -10.939  12.181  27.106  0.00  0.00    -0.624 OA
ATOM      4  O   UNL d   1     -12.033  10.007  28.468  0.00  0.00    -0.268 OA
ATOM      5  C   UNL d   1     -11.974   8.816  29.243  0.00  0.00     0.187 C 
ATOM      6  C   UNL d   1     -13.376   8.329  29.569  0.00  0.00     0.178 C 
ATOM      7  O   UNL d   1     -14.087   9.333  30.302  0.00  0.00    -0.331 OA
ATOM      8  C   UNL d   1     -14.211   8.038  28.335  0.00  0.00     0.191 C 
ATOM      9  O   UNL d   1     -14.109   6.688  27.907  0.00  0.00    -0.268 OA
ATOM     10  C   UNL d   1     -15.615   8.378  28.764  0.00  0.00     0.231 C 
ATOM     11  O   UNL d   1     -16.263   7.240  29.343  0.00  0.00    -0.216 OA
ATOM     12  C   UNL d   1     -15.432   9.455  29.817  0.00  0.00     0.241 C 
ATOM     13  P   UNL d   1     -14.358   6.330  26.362  0.00  0.00     0.410 P 
ATOM     14  O   UNL d   1     -14.199   4.577  26.105  0.00  0.00    -0.624 OA
ATOM     15  O   UNL d   1     -15.945   6.928  25.833  0.00  0.00    -0.624 OA
ATOM     16  O   UNL d   1     -13.209   7.126  25.580  0.00  0.00    -0.268 OA
ATOM     17  C   UNL d   1     -11.843   6.824  25.806  0.00  0.00     0.187 C 
ATOM     18  C   UNL d   1     -10.972   7.841  25.086  0.00  0.00     0.178 C 
ATOM     19  O   UNL d   1     -11.351   7.958  23.707  0.00  0.00    -0.331 OA
ATOM     20  C   UNL d   1     -11.090   9.245  25.655  0.00  0.00     0.191 C 
ATOM     21  O   UNL d   1     -10.246   9.487  26.778  0.00  0.00    -0.268 OA
ATOM     22  C   UNL d   1     -10.703  10.103  24.482  0.00  0.00     0.231 C 
ATOM     23  O   UNL d   1      -9.283  10.254  24.424  0.00  0.00    -0.216 OA
ATOM     24  C   UNL d   1     -11.206   9.321  23.283  0.00  0.00     0.241 C 
ENDROOT
BRANCH  12  25
ATOM     25  N   UNL d   1     -15.650  10.820  29.263  0.00  0.00    -0.269 N 
ATOM     26  C   UNL d   1     -16.779  11.276  28.718  0.00  0.00     0.187 A 
ATOM     27  N   UNL d   1     -18.004  10.746  28.461  0.00  0.00    -0.039 NA
ATOM     28  C   UNL d   1     -16.512  12.671  28.343  0.00  0.00     0.162 A 
ATOM     29  C   UNL d   1     -18.978  11.497  27.866  0.00  0.00     0.772 A 
ATOM     30  N   UNL d   1     -18.780  12.796  27.503  0.00  0.00    -0.029 NA
ATOM     31  N   UNL d   1     -20.191  10.941  27.620  0.00  0.00     0.062 N 
ATOM     32  C   UNL d   1     -17.607  13.435  27.710  0.00  0.00     0.251 A 
ATOM     33  O   UNL d   1     -17.434  14.734  27.334  0.00  0.00    -0.167 OA
ATOM     34  N   UNL d   1     -15.249  12.941  28.701  0.00  0.00    -0.219 NA
ATOM     35  C   UNL d   1     -14.736  11.817  29.260  0.00  0.00     0.182 A 
ENDBRANCH  12  25
BRANCH  24  36
ATOM     36  N   UNL d   1     -12.507   9.894  22.849  0.00  0.00    -0.269 N 
ATOM     37  C   UNL d   1     -12.648  10.995  22.112  0.00  0.00     0.187 A 
ATOM     38  C   UNL d   1     -14.085  11.195  21.935  0.00  0.00     0.162 A 
ATOM     39  N   UNL d   1     -11.790  11.881  21.555  0.00  0.00    -0.039 NA
ATOM     40  N   UNL d   1     -14.692  10.193  22.582  0.00  0.00    -0.219 NA
ATOM     41  C   UNL d   1     -14.521  12.361  21.143  0.00  0.00     0.251 A 
ATOM     42  C   UNL d   1     -13.731   9.410  23.136  0.00  0.00     0.182 A 
ATOM     43  O   UNL d   1     -15.840  12.606  20.929  0.00  0.00    -0.167 OA
ATOM     44  N   UNL d   1     -13.568  13.173  20.633  0.00  0.00    -0.029 NA
ATOM     45  C   UNL d   1     -12.243  12.942  20.835  0.00  0.00     0.772 A 
ATOM     46  N   UNL d   1     -11.345  13.798  20.296  0.00  0.00     0.062 N 
ENDBRANCH  24  36
TORSDOF 2
