3Q3Z_C2E_V_1
 OpenBabel10091713583D
Coordinates from PDB:3Q3Z:V:1 Model:1 without hydrogens
 46 52  0  0  0  0  0  0  0  0999 V2000
  -10.6710   10.5950   27.8670 P   0  0  2  0  0  0  0  0  0  0  0  0
   -9.4540   10.7400   29.1590 O   0  0  0  0  0  0  0  0  0  0  0  0
  -10.9390   12.1810   27.1060 O   0  0  0  0  0  0  0  0  0  0  0  0
  -12.0330   10.0070   28.4680 O   0  0  0  0  0  0  0  0  0  0  0  0
  -11.9740    8.8160   29.2430 C   0  0  0  0  0  0  0  0  0  0  0  0
  -13.3760    8.3290   29.5690 C   0  0  1  0  0  0  0  0  0  0  0  0
  -14.0870    9.3330   30.3020 O   0  0  0  0  0  0  0  0  0  0  0  0
  -14.2110    8.0380   28.3350 C   0  0  1  0  0  0  0  0  0  0  0  0
  -14.1090    6.6880   27.9070 O   0  0  0  0  0  0  0  0  0  0  0  0
  -15.6150    8.3780   28.7640 C   0  0  1  0  0  0  0  0  0  0  0  0
  -16.2630    7.2400   29.3430 O   0  0  0  0  0  0  0  0  0  0  0  0
  -15.4320    9.4550   29.8170 C   0  0  2  0  0  0  0  0  0  0  0  0
  -15.6500   10.8200   29.2630 N   0  0  0  0  0  0  0  0  0  0  0  0
  -14.7360   11.8170   29.2600 C   0  0  0  0  0  0  0  0  0  0  0  0
  -15.2490   12.9410   28.7010 N   0  0  0  0  0  0  0  0  0  0  0  0
  -16.5120   12.6710   28.3430 C   0  0  0  0  0  0  0  0  0  0  0  0
  -17.6070   13.4350   27.7100 C   0  0  0  0  0  0  0  0  0  0  0  0
  -17.4340   14.7340   27.3340 O   0  0  0  0  0  0  0  0  0  0  0  0
  -18.7800   12.7960   27.5030 N   0  0  0  0  0  0  0  0  0  0  0  0
  -18.9780   11.4970   27.8660 C   0  0  0  0  0  0  0  0  0  0  0  0
  -20.1910   10.9410   27.6200 N   0  0  0  0  0  0  0  0  0  0  0  0
  -18.0040   10.7460   28.4610 N   0  0  0  0  0  0  0  0  0  0  0  0
  -16.7790   11.2760   28.7180 C   0  0  0  0  0  0  0  0  0  0  0  0
  -14.3580    6.3300   26.3620 P   0  0  1  0  0  0  0  0  0  0  0  0
  -14.1990    4.5770   26.1050 O   0  0  0  0  0  0  0  0  0  0  0  0
  -15.9450    6.9280   25.8330 O   0  0  0  0  0  0  0  0  0  0  0  0
  -13.2090    7.1260   25.5800 O   0  0  0  0  0  0  0  0  0  0  0  0
  -11.8430    6.8240   25.8060 C   0  0  0  0  0  0  0  0  0  0  0  0
  -10.9720    7.8410   25.0860 C   0  0  1  0  0  0  0  0  0  0  0  0
  -11.3510    7.9580   23.7070 O   0  0  0  0  0  0  0  0  0  0  0  0
  -11.0900    9.2450   25.6550 C   0  0  1  0  0  0  0  0  0  0  0  0
  -10.2460    9.4870   26.7780 O   0  0  0  0  0  0  0  0  0  0  0  0
  -10.7030   10.1030   24.4820 C   0  0  1  0  0  0  0  0  0  0  0  0
   -9.2830   10.2540   24.4240 O   0  0  0  0  0  0  0  0  0  0  0  0
  -11.2060    9.3210   23.2830 C   0  0  2  0  0  0  0  0  0  0  0  0
  -12.5070    9.8940   22.8490 N   0  0  0  0  0  0  0  0  0  0  0  0
  -13.7310    9.4100   23.1360 C   0  0  0  0  0  0  0  0  0  0  0  0
  -14.6920   10.1930   22.5820 N   0  0  0  0  0  0  0  0  0  0  0  0
  -14.0850   11.1950   21.9350 C   0  0  0  0  0  0  0  0  0  0  0  0
  -14.5210   12.3610   21.1430 C   0  0  0  0  0  0  0  0  0  0  0  0
  -15.8400   12.6060   20.9290 O   0  0  0  0  0  0  0  0  0  0  0  0
  -13.5680   13.1730   20.6330 N   0  0  0  0  0  0  0  0  0  0  0  0
  -12.2430   12.9420   20.8350 C   0  0  0  0  0  0  0  0  0  0  0  0
  -11.3450   13.7980   20.2960 N   0  0  0  0  0  0  0  0  0  0  0  0
  -11.7900   11.8810   21.5550 N   0  0  0  0  0  0  0  0  0  0  0  0
  -12.6480   10.9950   22.1120 C   0  0  0  0  0  0  0  0  0  0  0  0
  1  2  1  1  0  0  0
  3  1  2  0  0  0  0
  4  1  1  0  0  0  0
  5  4  1  0  0  0  0
  6  7  1  0  0  0  0
  6  5  1  6  0  0  0
  8  6  1  0  0  0  0
  8  9  1  1  0  0  0
  9 24  1  0  0  0  0
 10  8  1  0  0  0  0
 10 12  1  0  0  0  0
 10 11  1  1  0  0  0
 12  7  1  0  0  0  0
 12 13  1  6  0  0  0
 13 23  1  0  0  0  0
 13 14  1  0  0  0  0
 14 15  2  0  0  0  0
 16 15  1  0  0  0  0
 16 17  1  0  0  0  0
 17 18  2  0  0  0  0
 19 17  1  0  0  0  0
 20 19  1  0  0  0  0
 21 20  1  0  0  0  0
 22 20  2  0  0  0  0
 22 23  1  0  0  0  0
 23 16  2  0  0  0  0
 24 25  1  6  0  0  0
 24 27  1  0  0  0  0
 26 24  2  0  0  0  0
 28 27  1  0  0  0  0
 29 28  1  1  0  0  0
 29 30  1  0  0  0  0
 29 31  1  0  0  0  0
 30 35  1  0  0  0  0
 31 33  1  0  0  0  0
 31 32  1  1  0  0  0
 32  1  1  0  0  0  0
 33 34  1  6  0  0  0
 35 33  1  0  0  0  0
 35 36  1  1  0  0  0
 36 46  1  0  0  0  0
 37 38  2  0  0  0  0
 37 36  1  0  0  0  0
 38 39  1  0  0  0  0
 39 46  2  0  0  0  0
 39 40  1  0  0  0  0
 40 41  2  0  0  0  0
 40 42  1  0  0  0  0
 43 42  1  0  0  0  0
 43 44  1  0  0  0  0
 45 43  2  0  0  0  0
 46 45  1  0  0  0  0
A    1
P1
A    2
O2P
A    3
O1P
A    4
O5'
A    5
C5'
A    6
C4'
A    7
O4'
A    8
C3'
A    9
O3'
A   10
C2'
A   11
O2'
A   12
C1'
A   13
N9
A   14
C8
A   15
N7
A   16
C5
A   17
C6
A   18
O6
A   19
N1
A   20
C2
A   21
N2
A   22
N3
A   23
C4
A   24
P11
A   25
O21
A   26
O11
A   27
O5A
A   28
C5A
A   29
C4A
A   30
O4A
A   31
C3A
A   32
O3A
A   33
C2A
A   34
O2A
A   35
C1A
A   36
N91
A   37
C81
A   38
N71
A   39
C51
A   40
C61
A   41
O61
A   42
N11
A   43
C21
A   44
N21
A   45
N31
A   46
C41
M  END
>  <InstanceId>
3Q3Z_C2E_V_1

>  <ChemCompId>
C2E

>  <PdbId>
3Q3Z

>  <ChainId>
V

>  <ResidueNumber>
1

>  <InsertionCode>


>  <Model>
1

>  <AltIds>


>  <MissingHeavyAtoms>
0

>  <ObservedFormula>
C20 N10 O14 P2

>  <Name>
9,9'-[(2R,3R,3aS,5S,7aR,9R,10R,10aS,12S,14aR)-3,5,10,12-tetrahydroxy-5,12-dioxidooctahydro-2H,7H-difuro[3,2-d:3',2'-j][1,3,7,9,2,8]tetraoxadiphosphacyclododecine-2,9-diyl]bis(2-amino-1,9-dihydro-6H-purin-6-one)

>  <SystematicName>


>  <Synonyms>
c-di-GMP, Cyclic diguanosine monophosphate

>  <Type>
NON-POLYMER

>  <Formula>
C20 H24 N10 O14 P2

>  <MolecularWeight>
690.411

>  <ModifiedDate>
2011-06-04

>  <Parent>


>  <OneLetterCode>


>  <SubcomponentList>


>  <AmbiguousFlag>
N

>  <InChI>
InChI=1S/C20H24N10O14P2/c21-19-25-13-7(15(33)27-19)23-3-29(13)17-9(31)11-5(41-17)1-39-45(35,36)44-12-6(2-40-46(37,38)43-11)42-18(10(12)32)30-4-24-8-14(30)26-20(22)28-16(8)34/h3-6,9-12,17-18,31-32H,1-2H2,(H,35,36)(H,37,38)(H3,21,25,27,33)(H3,22,26,28,34)/t5-,6-,9-,10-,11-,12-,17-,18-/m1/s1

>  <InChIKey>
PKFDLKSEZWEFGL-MHARETSRSA-N

>  <SMILES>
c1nc2c(n1[C@H]3[C@@H]([C@H]4[C@H](O3)CO[P@@](=O)(O[C@@H]5[C@@H](CO[P@@](=O)(O4)O)O[C@H]([C@@H]5O)n6cnc7c6N=C(NC7=O)N)O)O)N=C(NC2=O)N

$$$$
