@<TRIPOS>MOLECULE
2MIY_PRF_A_101
 22 23 0 0 0
SMALL
GASTEIGER

@<TRIPOS>ATOM
      1 N           2.0911   -1.1958    0.0451 N.ar    1  UNL1       -0.2947
      2 H           2.6937   -2.0135    0.0759 H       1  UNL1        0.1716
      3 C           2.6994    0.0545   -0.1710 C.ar    1  UNL1        0.1949
      4 N           2.0163    1.1699   -0.2702 N.ar    1  UNL1       -0.1982
      5 C           0.7056    1.0231    0.0461 C.ar    1  UNL1        0.1472
      6 C          -0.0030   -0.1465    0.2434 C.ar    1  UNL1        0.0874
      7 C           0.7300   -1.3950    0.2828 C.ar    1  UNL1        0.2622
      8 O           0.2222   -2.4883    0.5041 O.2     1  UNL1       -0.2670
      9 C          -1.3771    0.1924    0.3786 C.ar    1  UNL1       -0.0020
     10 C          -2.5451   -0.7074    0.5628 C.3     1  UNL1        0.0208
     11 N          -2.5628   -1.2299    1.9205 N.3     1  UNL1       -0.3260
     12 C          -1.4428    1.5710    0.2758 C.ar    1  UNL1        0.0087
     13 N          -0.1840    2.0596    0.0523 N.ar    1  UNL1       -0.3453
     14 H           0.0384    3.0272   -0.1332 H       1  UNL1        0.1668
     15 N           4.0650   -0.0026   -0.3396 N.pl3   1  UNL1       -0.3289
     16 H          -3.4801   -0.1709    0.3786 H       1  UNL1        0.0472
     17 H          -2.5051   -1.5271   -0.1597 H       1  UNL1        0.0472
     18 H          -2.0275   -2.0960    1.9426 H       1  UNL1        0.1185
     19 H          -2.0899   -0.5858    2.5547 H       1  UNL1        0.1185
     20 H          -2.2951    2.2334    0.3068 H       1  UNL1        0.0811
     21 H           4.4780    0.8826   -0.6244 H       1  UNL1        0.1451
     22 H           4.5530   -0.3450    0.4868 H       1  UNL1        0.1451
@<TRIPOS>BOND
     1     1     2    1
     2     3     1   ar
     3     4     3   ar
     4     5     4   ar
     5     6     5   ar
     6     7     6   ar
     7     7     1   ar
     8     8     7    2
     9     9     6   ar
    10    10     9    1
    11    11    10    1
    12    12     9   ar
    13    13    12   ar
    14    13    14    1
    15    13     5   ar
    16    15     3    1
    17    10    16    1
    18    10    17    1
    19    11    18    1
    20    11    19    1
    21    12    20    1
    22    15    21    1
    23    15    22    1
