ligands/ligand.pdb
 OpenBabel03221817283D

 69 71  0  0  1  0  0  0  0  0999 V2000
    4.6196    4.1157    0.3124 C   0  0  2  0  0  0  0  0  0  0  0  0
    4.8619    3.0549    0.2682 H   0  0  0  0  0  0  0  0  0  0  0  0
    5.7689    4.8871    1.0184 C   0  0  1  0  0  0  0  0  0  0  0  0
    5.9544    4.4647    2.0123 H   0  0  0  0  0  0  0  0  0  0  0  0
    7.0805    4.8472    0.1934 C   0  0  2  0  0  0  0  0  0  0  0  0
    7.7428    5.6295    0.5891 H   0  0  0  0  0  0  0  0  0  0  0  0
    6.7945    5.2156   -1.2851 C   0  0  1  0  0  0  0  0  0  0  0  0
    7.6973    5.0977   -1.8925 H   0  0  0  0  0  0  0  0  0  0  0  0
    5.6237    4.4135   -1.8759 C   0  0  1  0  0  0  0  0  0  0  0  0
    5.3490    4.8996   -2.8206 H   0  0  0  0  0  0  0  0  0  0  0  0
    5.9474    2.9491   -2.2289 C   0  0  0  0  0  0  0  0  0  0  0  0
    7.0480    2.8286   -3.1246 O   0  0  0  0  0  0  0  0  0  0  0  0
    4.4601    4.5471   -1.0402 O   0  0  0  0  0  0  0  0  0  0  0  0
    6.4405    6.6080   -1.3704 O   0  0  0  0  0  0  0  0  0  0  0  0
    7.8343    3.5828    0.3282 N   0  0  0  0  0  0  0  0  0  0  0  0
    5.4206    6.2614    1.2496 O   0  0  0  0  0  0  0  0  0  0  0  0
    3.3526    4.2788    0.9626 O   0  0  0  0  0  0  0  0  0  0  0  0
    3.2066    3.6801    2.2561 C   0  0  1  0  0  0  0  0  0  0  0  0
    3.9353    4.1578    2.9257 H   0  0  0  0  0  0  0  0  0  0  0  0
    1.7947    4.0339    2.8141 C   0  0  1  0  0  0  0  0  0  0  0  0
    1.5698    5.0763    2.5401 H   0  0  0  0  0  0  0  0  0  0  0  0
    0.6747    3.1710    2.2086 C   0  0  0  0  0  0  0  0  0  0  0  0
    0.9368    1.6544    2.1465 C   0  0  1  0  0  0  0  0  0  0  0  0
    0.1496    1.2301    1.5200 H   0  0  0  0  0  0  0  0  0  0  0  0
    2.3230    1.3483    1.5321 C   0  0  2  0  0  0  0  0  0  0  0  0
    2.5495    0.2885    1.7050 H   0  0  0  0  0  0  0  0  0  0  0  0
    3.4335    2.1495    2.2677 C   0  0  2  0  0  0  0  0  0  0  0  0
    4.3905    1.9143    1.7977 H   0  0  0  0  0  0  0  0  0  0  0  0
    3.5712    1.7100    3.6344 O   0  0  0  0  0  0  0  0  0  0  0  0
    2.3590    1.5870    0.1109 O   0  0  0  0  0  0  0  0  0  0  0  0
    1.9362    0.4445   -0.6589 C   0  0  2  0  0  0  0  0  0  0  0  0
    2.5058   -0.3998   -0.2669 H   0  0  0  0  0  0  0  0  0  0  0  0
    2.3220    0.5637   -2.1623 C   0  0  1  0  0  0  0  0  0  0  0  0
    3.3821    0.8245   -2.2373 H   0  0  0  0  0  0  0  0  0  0  0  0
    2.0872   -0.8252   -2.7751 C   0  0  0  0  0  0  0  0  0  0  0  0
    0.6554   -1.3189   -2.5684 C   0  0  1  0  0  0  0  0  0  0  0  0
    0.5865   -2.3917   -2.7826 H   0  0  0  0  0  0  0  0  0  0  0  0
    0.0757   -1.0197   -1.1589 C   0  0  1  0  0  0  0  0  0  0  0  0
   -1.0028   -0.8543   -1.2871 H   0  0  0  0  0  0  0  0  0  0  0  0
    0.1754   -2.2099   -0.1738 C   0  0  0  0  0  0  0  0  0  0  0  0
    1.5301   -2.6856    0.1307 N   0  0  0  0  0  0  0  0  0  0  0  0
    0.5391    0.1941   -0.5420 O   0  0  0  0  0  0  0  0  0  0  0  0
   -0.1753   -0.6783   -3.5564 O   0  0  0  0  0  0  0  0  0  0  0  0
    1.5739    1.5875   -2.9162 N   0  0  0  0  0  0  0  0  0  0  0  0
    0.8022    0.9840    3.4565 N   0  0  0  0  0  0  0  0  0  0  0  0
    1.7431    4.0100    4.2950 N   0  0  0  0  0  0  0  0  0  0  0  0
    6.1496    2.3223   -1.3577 H   0  0  0  0  0  0  0  0  0  0  0  0
    5.0770    2.4934   -2.7126 H   0  0  0  0  0  0  0  0  0  0  0  0
    7.8682    2.9659   -2.6176 H   0  0  0  0  0  0  0  0  0  0  0  0
    7.0810    7.1228   -0.8502 H   0  0  0  0  0  0  0  0  0  0  0  0
    7.2165    2.7740    0.3398 H   0  0  0  0  0  0  0  0  0  0  0  0
    8.2810    3.5724    1.2500 H   0  0  0  0  0  0  0  0  0  0  0  0
    4.8922    6.5389    0.4696 H   0  0  0  0  0  0  0  0  0  0  0  0
    0.5009    3.5227    1.1849 H   0  0  0  0  0  0  0  0  0  0  0  0
   -0.2740    3.3518    2.7365 H   0  0  0  0  0  0  0  0  0  0  0  0
    3.7128    0.7464    3.6144 H   0  0  0  0  0  0  0  0  0  0  0  0
    2.7774   -1.5372   -2.3004 H   0  0  0  0  0  0  0  0  0  0  0  0
    2.3441   -0.8172   -3.8442 H   0  0  0  0  0  0  0  0  0  0  0  0
   -0.2988   -1.9275    0.7736 H   0  0  0  0  0  0  0  0  0  0  0  0
   -0.3937   -3.0533   -0.5828 H   0  0  0  0  0  0  0  0  0  0  0  0
    1.4464   -3.5607    0.6532 H   0  0  0  0  0  0  0  0  0  0  0  0
    1.9401   -2.0414    0.8084 H   0  0  0  0  0  0  0  0  0  0  0  0
    0.1393   -0.9671   -4.4320 H   0  0  0  0  0  0  0  0  0  0  0  0
    0.5796    1.3306   -2.9041 H   0  0  0  0  0  0  0  0  0  0  0  0
    1.8433    1.5696   -3.8973 H   0  0  0  0  0  0  0  0  0  0  0  0
   -0.0968    1.2319    3.8675 H   0  0  0  0  0  0  0  0  0  0  0  0
    1.5154    1.3499    4.0897 H   0  0  0  0  0  0  0  0  0  0  0  0
    2.1893    3.1643    4.6458 H   0  0  0  0  0  0  0  0  0  0  0  0
    0.7754    4.0198    4.6223 H   0  0  0  0  0  0  0  0  0  0  0  0
  1  3  1  1  0  0  0
  1 13  1  0  0  0  0
  1 17  1  0  0  0  0
  1  2  1  0  0  0  0
  3  5  1  6  0  0  0
  3 16  1  0  0  0  0
  3  4  1  0  0  0  0
  5  7  1  6  0  0  0
  5 15  1  0  0  0  0
  5  6  1  0  0  0  0
  7  8  1  6  0  0  0
  7 14  1  0  0  0  0
  9  7  1  1  0  0  0
  9 13  1  0  0  0  0
  9 11  1  0  0  0  0
  9 10  1  0  0  0  0
 11 12  1  0  0  0  0
 11 47  1  0  0  0  0
 11 48  1  0  0  0  0
 12 49  1  0  0  0  0
 14 50  1  0  0  0  0
 15 51  1  0  0  0  0
 15 52  1  0  0  0  0
 16 53  1  0  0  0  0
 17 18  1  0  0  0  0
 18 19  1  0  0  0  0
 18 20  1  1  0  0  0
 20 22  1  0  0  0  0
 20 46  1  0  0  0  0
 20 21  1  6  0  0  0
 22 23  1  0  0  0  0
 22 54  1  0  0  0  0
 22 55  1  0  0  0  0
 23 24  1  0  0  0  0
 23 25  1  6  0  0  0
 23 45  1  0  0  0  0
 25 27  1  1  0  0  0
 25 30  1  0  0  0  0
 25 26  1  0  0  0  0
 27 28  1  0  0  0  0
 27 18  1  6  0  0  0
 27 29  1  0  0  0  0
 29 56  1  0  0  0  0
 31 42  1  0  0  0  0
 31 32  1  1  0  0  0
 31 30  1  0  0  0  0
 33 31  1  1  0  0  0
 33 35  1  0  0  0  0
 33 44  1  0  0  0  0
 33 34  1  0  0  0  0
 35 36  1  0  0  0  0
 35 57  1  0  0  0  0
 35 58  1  0  0  0  0
 36 37  1  0  0  0  0
 36 38  1  1  0  0  0
 36 43  1  0  0  0  0
 38 42  1  0  0  0  0
 38 40  1  0  0  0  0
 38 39  1  6  0  0  0
 40 41  1  0  0  0  0
 40 59  1  0  0  0  0
 40 60  1  0  0  0  0
 41 61  1  0  0  0  0
 41 62  1  0  0  0  0
 43 63  1  0  0  0  0
 44 64  1  0  0  0  0
 44 65  1  0  0  0  0
 45 66  1  0  0  0  0
 45 67  1  0  0  0  0
 46 68  1  0  0  0  0
 46 69  1  0  0  0  0
M  END
$$$$
