@<TRIPOS>MOLECULE
ligands/ligand.pdb
 69 71 0 0 0
SMALL
GASTEIGER

@<TRIPOS>ATOM
      1 C           4.6196    4.1157    0.3124 C.3     1  UNL1        0.1874
      2 H           4.8619    3.0549    0.2682 H       1  UNL1        0.0937
      3 C           5.7689    4.8871    1.0184 C.3     1  UNL1        0.1234
      4 H           5.9544    4.4647    2.0123 H       1  UNL1        0.0660
      5 C           7.0805    4.8472    0.1934 C.3     1  UNL1        0.0647
      6 H           7.7428    5.6295    0.5891 H       1  UNL1        0.0512
      7 C           6.7945    5.2156   -1.2851 C.3     1  UNL1        0.1012
      8 H           7.6973    5.0977   -1.8925 H       1  UNL1        0.0636
      9 C           5.6237    4.4135   -1.8759 C.3     1  UNL1        0.1120
     10 H           5.3490    4.8996   -2.8206 H       1  UNL1        0.0646
     11 C           5.9474    2.9491   -2.2289 C.3     1  UNL1        0.0730
     12 O           7.0480    2.8286   -3.1246 O.3     1  UNL1       -0.3924
     13 O           4.4601    4.5471   -1.0402 O.3     1  UNL1       -0.3406
     14 O           6.4405    6.6080   -1.3704 O.3     1  UNL1       -0.3875
     15 N           7.8343    3.5828    0.3282 N.3     1  UNL1       -0.3229
     16 O           5.4206    6.2614    1.2496 O.3     1  UNL1       -0.3851
     17 O           3.3526    4.2788    0.9626 O.3     1  UNL1       -0.3413
     18 C           3.2066    3.6801    2.2561 C.3     1  UNL1        0.1051
     19 H           3.9353    4.1578    2.9257 H       1  UNL1        0.0639
     20 C           1.7947    4.0339    2.8141 C.3     1  UNL1        0.0355
     21 H           1.5698    5.0763    2.5401 H       1  UNL1        0.0485
     22 C           0.6747    3.1710    2.2086 C.3     1  UNL1       -0.0175
     23 C           0.9368    1.6544    2.1465 C.3     1  UNL1        0.0355
     24 H           0.1496    1.2301    1.5200 H       1  UNL1        0.0485
     25 C           2.3230    1.3483    1.5321 C.3     1  UNL1        0.1051
     26 H           2.5495    0.2885    1.7050 H       1  UNL1        0.0639
     27 C           3.4335    2.1495    2.2677 C.3     1  UNL1        0.1104
     28 H           4.3905    1.9143    1.7977 H       1  UNL1        0.0646
     29 O           3.5712    1.7100    3.6344 O.3     1  UNL1       -0.3865
     30 O           2.3590    1.5870    0.1109 O.3     1  UNL1       -0.3423
     31 C           1.9362    0.4445   -0.6589 C.3     1  UNL1        0.1752
     32 H           2.5058   -0.3998   -0.2669 H       1  UNL1        0.0926
     33 C           2.3220    0.5637   -2.1623 C.3     1  UNL1        0.0590
     34 H           3.3821    0.8245   -2.2373 H       1  UNL1        0.0509
     35 C           2.0872   -0.8252   -2.7751 C.3     1  UNL1       -0.0044
     36 C           0.6554   -1.3189   -2.5684 C.3     1  UNL1        0.0842
     37 H           0.5865   -2.3917   -2.7826 H       1  UNL1        0.0620
     38 C           0.0757   -1.0197   -1.1589 C.3     1  UNL1        0.0998
     39 H          -1.0028   -0.8543   -1.2871 H       1  UNL1        0.0635
     40 C           0.1754   -2.2099   -0.1738 C.3     1  UNL1        0.0221
     41 N           1.5301   -2.6856    0.1307 N.3     1  UNL1       -0.3276
     42 O           0.5391    0.1941   -0.5420 O.3     1  UNL1       -0.3427
     43 O          -0.1753   -0.6783   -3.5564 O.3     1  UNL1       -0.3891
     44 N           1.5739    1.5875   -2.9162 N.3     1  UNL1       -0.3231
     45 N           0.8022    0.9840    3.4565 N.3     1  UNL1       -0.3250
     46 N           1.7431    4.0100    4.2950 N.3     1  UNL1       -0.3250
     47 H           6.1496    2.3223   -1.3577 H       1  UNL1        0.0584
     48 H           5.0770    2.4934   -2.7126 H       1  UNL1        0.0584
     49 H           7.8682    2.9659   -2.6176 H       1  UNL1        0.2095
     50 H           7.0810    7.1228   -0.8502 H       1  UNL1        0.2100
     51 H           7.2165    2.7740    0.3398 H       1  UNL1        0.1186
     52 H           8.2810    3.5724    1.2500 H       1  UNL1        0.1186
     53 H           4.8922    6.5389    0.4696 H       1  UNL1        0.2101
     54 H           0.5009    3.5227    1.1849 H       1  UNL1        0.0297
     55 H          -0.2740    3.3518    2.7365 H       1  UNL1        0.0297
     56 H           3.7128    0.7464    3.6144 H       1  UNL1        0.2100
     57 H           2.7774   -1.5372   -2.3004 H       1  UNL1        0.0308
     58 H           2.3441   -0.8172   -3.8442 H       1  UNL1        0.0308
     59 H          -0.2988   -1.9275    0.7736 H       1  UNL1        0.0448
     60 H          -0.3937   -3.0533   -0.5828 H       1  UNL1        0.0448
     61 H           1.4464   -3.5607    0.6532 H       1  UNL1        0.1183
     62 H           1.9401   -2.0414    0.8084 H       1  UNL1        0.1183
     63 H           0.1393   -0.9671   -4.4320 H       1  UNL1        0.2099
     64 H           0.5796    1.3306   -2.9041 H       1  UNL1        0.1186
     65 H           1.8433    1.5696   -3.8973 H       1  UNL1        0.1186
     66 H          -0.0968    1.2319    3.8675 H       1  UNL1        0.1185
     67 H           1.5154    1.3499    4.0897 H       1  UNL1        0.1185
     68 H           2.1893    3.1643    4.6458 H       1  UNL1        0.1185
     69 H           0.7754    4.0198    4.6223 H       1  UNL1        0.1185
@<TRIPOS>BOND
     1     1     3    1
     2     1    13    1
     3     1    17    1
     4     1     2    1
     5     3     5    1
     6     3    16    1
     7     3     4    1
     8     5     7    1
     9     5    15    1
    10     5     6    1
    11     7     8    1
    12     7    14    1
    13     9     7    1
    14     9    13    1
    15     9    11    1
    16     9    10    1
    17    11    12    1
    18    11    47    1
    19    11    48    1
    20    12    49    1
    21    14    50    1
    22    15    51    1
    23    15    52    1
    24    16    53    1
    25    17    18    1
    26    18    19    1
    27    18    20    1
    28    20    22    1
    29    20    46    1
    30    20    21    1
    31    22    23    1
    32    22    54    1
    33    22    55    1
    34    23    24    1
    35    23    25    1
    36    23    45    1
    37    25    27    1
    38    25    30    1
    39    25    26    1
    40    27    28    1
    41    27    18    1
    42    27    29    1
    43    29    56    1
    44    31    42    1
    45    31    32    1
    46    31    30    1
    47    33    31    1
    48    33    35    1
    49    33    44    1
    50    33    34    1
    51    35    36    1
    52    35    57    1
    53    35    58    1
    54    36    37    1
    55    36    38    1
    56    36    43    1
    57    38    42    1
    58    38    40    1
    59    38    39    1
    60    40    41    1
    61    40    59    1
    62    40    60    1
    63    41    61    1
    64    41    62    1
    65    43    63    1
    66    44    64    1
    67    44    65    1
    68    45    66    1
    69    45    67    1
    70    46    68    1
    71    46    69    1
