2O3Y_SPM_A_51
 OpenBabel10091713573D
Coordinates from PDB:2O3Y:A:51 Model:1 without hydrogens
 40 39  0  0  0  0  0  0  0  0999 V2000
   10.5360   14.6010   14.2440 N   0  0  0  0  0  0  0  0  0  0  0  0
   11.3370   13.4810   14.7560 C   0  0  0  0  0  0  0  0  0  0  0  0
   11.7200   12.5640   13.5990 C   0  0  0  0  0  0  0  0  0  0  0  0
   12.8890   11.6950   14.0330 C   0  0  0  0  0  0  0  0  0  0  0  0
   12.4520   10.2950   14.0770 N   0  0  0  0  0  0  0  0  0  0  0  0
   13.4660    9.5050   13.3570 C   0  0  0  0  0  0  0  0  0  0  0  0
   12.9010    8.9830   12.0310 C   0  0  0  0  0  0  0  0  0  0  0  0
   14.0530    8.8920   11.0190 C   0  0  0  0  0  0  0  0  0  0  0  0
   13.6930    9.5970    9.7780 C   0  0  0  0  0  0  0  0  0  0  0  0
   14.0370   11.0220    9.9590 N   0  0  0  0  0  0  0  0  0  0  0  0
   15.5170   11.2540    9.6340 C   0  0  0  0  0  0  0  0  0  0  0  0
   16.0340   12.4650   10.4200 C   0  0  0  0  0  0  0  0  0  0  0  0
   17.4400   12.2430   10.8090 C   0  0  0  0  0  0  0  0  0  0  0  0
   17.9430   13.4190   11.5510 N   0  0  0  0  0  0  0  0  0  0  0  0
   10.2786   15.2158   15.0161 H   0  0  0  0  0  0  0  0  0  0  0  0
    9.6913   14.2401   13.8006 H   0  0  0  0  0  0  0  0  0  0  0  0
   10.7646   12.9310   15.4735 H   0  0  0  0  0  0  0  0  0  0  0  0
   12.2230   13.8581   15.2226 H   0  0  0  0  0  0  0  0  0  0  0  0
   12.0039   13.1526   12.7517 H   0  0  0  0  0  0  0  0  0  0  0  0
   10.8873   11.9479   13.3308 H   0  0  0  0  0  0  0  0  0  0  0  0
   13.2204   11.9982   15.0041 H   0  0  0  0  0  0  0  0  0  0  0  0
   13.6958   11.8005   13.3382 H   0  0  0  0  0  0  0  0  0  0  0  0
   11.5440   10.1969   13.6228 H   0  0  0  0  0  0  0  0  0  0  0  0
   13.7618    8.6752   13.9643 H   0  0  0  0  0  0  0  0  0  0  0  0
   14.3087   10.1312   13.1505 H   0  0  0  0  0  0  0  0  0  0  0  0
   12.1520    9.6550   11.6672 H   0  0  0  0  0  0  0  0  0  0  0  0
   12.4576    8.0196   12.1728 H   0  0  0  0  0  0  0  0  0  0  0  0
   14.2492    7.8637   10.7977 H   0  0  0  0  0  0  0  0  0  0  0  0
   14.9254    9.3468   11.4397 H   0  0  0  0  0  0  0  0  0  0  0  0
   12.6443    9.4955    9.5916 H   0  0  0  0  0  0  0  0  0  0  0  0
   14.2225    9.1852    8.9443 H   0  0  0  0  0  0  0  0  0  0  0  0
   13.8580   11.2917   10.9263 H   0  0  0  0  0  0  0  0  0  0  0  0
   15.6266   11.4371    8.5855 H   0  0  0  0  0  0  0  0  0  0  0  0
   16.0805   10.3866    9.9076 H   0  0  0  0  0  0  0  0  0  0  0  0
   15.4388   12.5988   11.2990 H   0  0  0  0  0  0  0  0  0  0  0  0
   15.9703   13.3390    9.8060 H   0  0  0  0  0  0  0  0  0  0  0  0
   18.0332   12.0961    9.9307 H   0  0  0  0  0  0  0  0  0  0  0  0
   17.5025   11.3764   11.4335 H   0  0  0  0  0  0  0  0  0  0  0  0
   17.8843   14.2463   10.9572 H   0  0  0  0  0  0  0  0  0  0  0  0
   18.9143   13.2616   11.8196 H   0  0  0  0  0  0  0  0  0  0  0  0
  1  2  1  0  0  0  0
  1 15  1  0  0  0  0
  1 16  1  0  0  0  0
  2  3  1  0  0  0  0
  2 17  1  0  0  0  0
  2 18  1  0  0  0  0
  3  4  1  0  0  0  0
  3 19  1  0  0  0  0
  3 20  1  0  0  0  0
  4  5  1  0  0  0  0
  4 21  1  0  0  0  0
  4 22  1  0  0  0  0
  5  6  1  0  0  0  0
  5 23  1  0  0  0  0
  6  7  1  0  0  0  0
  6 24  1  0  0  0  0
  6 25  1  0  0  0  0
  7  8  1  0  0  0  0
  7 26  1  0  0  0  0
  7 27  1  0  0  0  0
  8  9  1  0  0  0  0
  8 28  1  0  0  0  0
  8 29  1  0  0  0  0
  9 10  1  0  0  0  0
  9 30  1  0  0  0  0
  9 31  1  0  0  0  0
 10 11  1  0  0  0  0
 10 32  1  0  0  0  0
 11 12  1  0  0  0  0
 11 33  1  0  0  0  0
 11 34  1  0  0  0  0
 12 13  1  0  0  0  0
 12 35  1  0  0  0  0
 12 36  1  0  0  0  0
 13 14  1  0  0  0  0
 13 37  1  0  0  0  0
 13 38  1  0  0  0  0
 14 39  1  0  0  0  0
 14 40  1  0  0  0  0
M  END
$$$$
