2O3Y_SPM_A_51
 OpenBabel10091713573D
Coordinates from PDB:2O3Y:A:51 Model:1 without hydrogens
 14 13  0  0  0  0  0  0  0  0999 V2000
   10.5360   14.6010   14.2440 N   0  0  0  0  0  0  0  0  0  0  0  0
   11.3370   13.4810   14.7560 C   0  0  0  0  0  0  0  0  0  0  0  0
   11.7200   12.5640   13.5990 C   0  0  0  0  0  0  0  0  0  0  0  0
   12.8890   11.6950   14.0330 C   0  0  0  0  0  0  0  0  0  0  0  0
   12.4520   10.2950   14.0770 N   0  0  0  0  0  0  0  0  0  0  0  0
   13.4660    9.5050   13.3570 C   0  0  0  0  0  0  0  0  0  0  0  0
   12.9010    8.9830   12.0310 C   0  0  0  0  0  0  0  0  0  0  0  0
   14.0530    8.8920   11.0190 C   0  0  0  0  0  0  0  0  0  0  0  0
   13.6930    9.5970    9.7780 C   0  0  0  0  0  0  0  0  0  0  0  0
   14.0370   11.0220    9.9590 N   0  0  0  0  0  0  0  0  0  0  0  0
   15.5170   11.2540    9.6340 C   0  0  0  0  0  0  0  0  0  0  0  0
   16.0340   12.4650   10.4200 C   0  0  0  0  0  0  0  0  0  0  0  0
   17.4400   12.2430   10.8090 C   0  0  0  0  0  0  0  0  0  0  0  0
   17.9430   13.4190   11.5510 N   0  0  0  0  0  0  0  0  0  0  0  0
  1  2  1  0  0  0  0
  2  3  1  0  0  0  0
  3  4  1  0  0  0  0
  4  5  1  0  0  0  0
  5  6  1  0  0  0  0
  6  7  1  0  0  0  0
  7  8  1  0  0  0  0
  8  9  1  0  0  0  0
  9 10  1  0  0  0  0
 10 11  1  0  0  0  0
 11 12  1  0  0  0  0
 12 13  1  0  0  0  0
 13 14  1  0  0  0  0
A    1
N1
A    2
C2
A    3
C3
A    4
C4
A    5
N5
A    6
C6
A    7
C7
A    8
C8
A    9
C9
A   10
N10
A   11
C11
A   12
C12
A   13
C13
A   14
N14
M  END
>  <InstanceId>
2O3Y_SPM_A_51

>  <ChemCompId>
SPM

>  <PdbId>
2O3Y

>  <ChainId>
A

>  <ResidueNumber>
51

>  <InsertionCode>


>  <Model>
1

>  <AltIds>


>  <MissingHeavyAtoms>
0

>  <ObservedFormula>
C10 N4

>  <Name>
SPERMINE

>  <SystematicName>
N,N'-bis(3-aminopropyl)butane-1,4-diamine

>  <Synonyms>


>  <Type>
NON-POLYMER

>  <Formula>
C10 H26 N4

>  <MolecularWeight>
202.34

>  <ModifiedDate>
2011-06-04

>  <Parent>


>  <OneLetterCode>


>  <SubcomponentList>


>  <AmbiguousFlag>
N

>  <InChI>
InChI=1S/C10H26N4/c11-5-3-9-13-7-1-2-8-14-10-4-6-12/h13-14H,1-12H2

>  <InChIKey>
PFNFFQXMRSDOHW-UHFFFAOYSA-N

>  <SMILES>
C(CCNCCCN)CNCCCN

$$$$
