@<TRIPOS>MOLECULE
2O3Y_SPM_A_51
 14 13 0 0 0
SMALL
GASTEIGER
****
Coordinates from PDB:2O3Y:A:51 Model:1 without hydrogens
@<TRIPOS>ATOM
      1 N          10.5360   14.6010   14.2440 N.3     1  UNL1       -0.1313
      2 C          11.3370   13.4810   14.7560 C.3     1  UNL1        0.1108
      3 C          11.7200   12.5640   13.5990 C.3     1  UNL1        0.0393
      4 C          12.8890   11.6950   14.0330 C.3     1  UNL1        0.0902
      5 N          12.4520   10.2950   14.0770 N.3     1  UNL1       -0.2180
      6 C          13.4660    9.5050   13.3570 C.3     1  UNL1        0.0887
      7 C          12.9010    8.9830   12.0310 C.3     1  UNL1        0.0203
      8 C          14.0530    8.8920   11.0190 C.3     1  UNL1        0.0203
      9 C          13.6930    9.5970    9.7780 C.3     1  UNL1        0.0887
     10 N          14.0370   11.0220    9.9590 N.3     1  UNL1       -0.2180
     11 C          15.5170   11.2540    9.6340 C.3     1  UNL1        0.0902
     12 C          16.0340   12.4650   10.4200 C.3     1  UNL1        0.0393
     13 C          17.4400   12.2430   10.8090 C.3     1  UNL1        0.1108
     14 N          17.9430   13.4190   11.5510 N.3     1  UNL1       -0.1313
@<TRIPOS>BOND
     1     1     2    1
     2     2     3    1
     3     3     4    1
     4     4     5    1
     5     5     6    1
     6     6     7    1
     7     7     8    1
     8     8     9    1
     9     9    10    1
    10    10    11    1
    11    11    12    1
    12    12    13    1
    13    13    14    1
