REMARK  5 active torsions:
REMARK  status: ('A' for Active; 'I' for Inactive)
REMARK    1  A    between atoms: C_1  and  O_2 
REMARK    2  A    between atoms: C_1  and  C_3 
REMARK    3  A    between atoms: C_3  and  O_4 
REMARK    4  A    between atoms: C_3  and  C_5 
REMARK    5  A    between atoms: C_5  and  O_6 
ROOT
ATOM      1  C   UNL d   1       2.430   0.069   0.036  0.00  0.00     0.165 C 
ENDROOT
BRANCH   1   2
ATOM      2  C   UNL d   1       0.910   0.218   0.044  0.00  0.00     0.198 C 
BRANCH   2   3
ATOM      3  O   UNL d   1       0.309  -0.834  -0.707  0.00  0.00    -0.398 OA
ATOM      4  H   UNL d   1       0.641  -1.660  -0.289  0.00  0.00     0.209 HD
ENDBRANCH   2   3
ENDBRANCH   1   2
BRANCH   1   5
ATOM      5  O   UNL d   1       2.747  -1.253   0.508  0.00  0.00    -0.391 OA
ATOM      6  H   UNL d   1       3.459  -1.585  -0.062  0.00  0.00     0.210 HD
ENDBRANCH   1   5
BRANCH   1   7
ATOM      7  C   UNL d   1       3.031   0.276  -1.362  0.00  0.00     0.198 C 
BRANCH   7   8
ATOM      8  O   UNL d   1       4.449   0.101  -1.294  0.00  0.00    -0.398 OA
ATOM      9  H   UNL d   1       4.801   0.778  -0.675  0.00  0.00     0.209 HD
ENDBRANCH   7   8
ENDBRANCH   1   7
TORSDOF 5
