@<TRIPOS>MOLECULE
2W89_GOL_B_1973
 14 13 0 0 0
SMALL
GASTEIGER

@<TRIPOS>ATOM
      1 C           0.9101    0.2177    0.0445 C.3     1  UNL1        0.0723
      2 O           0.3087   -0.8340   -0.7069 O.3     1  UNL1       -0.3924
      3 C           2.4298    0.0690    0.0361 C.3     1  UNL1        0.1012
      4 O           2.7470   -1.2527    0.5081 O.3     1  UNL1       -0.3873
      5 C           3.0306    0.2761   -1.3617 C.3     1  UNL1        0.0723
      6 O           4.4493    0.1008   -1.2937 O.3     1  UNL1       -0.3924
      7 H           0.5295    0.1492    1.0709 H       1  UNL1        0.0583
      8 H           0.6001    1.1755   -0.3814 H       1  UNL1        0.0583
      9 H           0.6410   -1.6596   -0.2888 H       1  UNL1        0.2095
     10 H           2.8849    0.7754    0.7347 H       1  UNL1        0.0639
     11 H           3.4588   -1.5848   -0.0623 H       1  UNL1        0.2100
     12 H           2.8156    1.2682   -1.7554 H       1  UNL1        0.0583
     13 H           2.6592   -0.4766   -2.0662 H       1  UNL1        0.0583
     14 H           4.8010    0.7776   -0.6752 H       1  UNL1        0.2095
@<TRIPOS>BOND
     1     1     2    1
     2     1     3    1
     3     1     7    1
     4     1     8    1
     5     2     9    1
     6     3     4    1
     7     3     5    1
     8     3    10    1
     9     4    11    1
    10     5     6    1
    11     5    12    1
    12     5    13    1
    13     6    14    1
