2W89_GOL_B_1973
 OpenBabel03221817283D

 14 13  0  0  0  0  0  0  0  0999 V2000
    0.9101    0.2177    0.0445 C   0  0  0  0  0  0  0  0  0  0  0  0
    0.3087   -0.8340   -0.7069 O   0  0  0  0  0  0  0  0  0  0  0  0
    2.4298    0.0690    0.0361 C   0  0  0  0  0  0  0  0  0  0  0  0
    2.7470   -1.2527    0.5081 O   0  0  0  0  0  0  0  0  0  0  0  0
    3.0306    0.2761   -1.3617 C   0  0  0  0  0  0  0  0  0  0  0  0
    4.4493    0.1008   -1.2937 O   0  0  0  0  0  0  0  0  0  0  0  0
    0.5295    0.1492    1.0709 H   0  0  0  0  0  0  0  0  0  0  0  0
    0.6001    1.1755   -0.3814 H   0  0  0  0  0  0  0  0  0  0  0  0
    0.6410   -1.6596   -0.2888 H   0  0  0  0  0  0  0  0  0  0  0  0
    2.8849    0.7754    0.7347 H   0  0  0  0  0  0  0  0  0  0  0  0
    3.4588   -1.5848   -0.0623 H   0  0  0  0  0  0  0  0  0  0  0  0
    2.8156    1.2682   -1.7554 H   0  0  0  0  0  0  0  0  0  0  0  0
    2.6592   -0.4766   -2.0662 H   0  0  0  0  0  0  0  0  0  0  0  0
    4.8010    0.7776   -0.6752 H   0  0  0  0  0  0  0  0  0  0  0  0
  1  2  1  0  0  0  0
  1  3  1  0  0  0  0
  1  7  1  0  0  0  0
  1  8  1  0  0  0  0
  2  9  1  0  0  0  0
  3  4  1  0  0  0  0
  3  5  1  0  0  0  0
  3 10  1  0  0  0  0
  4 11  1  0  0  0  0
  5  6  1  0  0  0  0
  5 12  1  0  0  0  0
  5 13  1  0  0  0  0
  6 14  1  0  0  0  0
M  END
$$$$
