4F8U_SIS_A_101
 OpenBabel03221817313D

 68 70  0  0  1  0  0  0  0  0999 V2000
    7.5505    4.4674    4.7844 C   0  0  2  0  0  0  0  0  0  0  0  0
    6.5936    4.6817    5.2741 H   0  0  0  0  0  0  0  0  0  0  0  0
    8.6797    5.1798    5.6081 C   0  0  1  0  0  0  0  0  0  0  0  0
    8.3599    6.2132    5.7901 H   0  0  0  0  0  0  0  0  0  0  0  0
    8.8941    4.4933    6.9652 C   0  0  0  0  0  0  0  0  0  0  0  0
    8.5478    3.0413    6.9614 C   0  0  0  0  0  0  0  0  0  0  0  0
    8.0173    2.4120    5.9013 C   0  0  0  0  0  0  0  0  0  0  0  0
    7.6776    0.9384    5.9331 C   0  0  0  0  0  0  0  0  0  0  0  0
    8.3291    0.2160    4.8485 N   0  0  0  0  0  0  0  0  0  0  0  0
    7.7300    3.0452    4.7076 O   0  0  0  0  0  0  0  0  0  0  0  0
    9.9687    5.3032    4.8770 N   0  0  0  0  0  0  0  0  0  0  0  0
    7.5498    5.0659    3.4764 O   0  0  0  0  0  0  0  0  0  0  0  0
    6.6210    4.5516    2.5004 C   0  0  2  0  0  0  0  0  0  0  0  0
    6.7316    3.4612    2.4342 H   0  0  0  0  0  0  0  0  0  0  0  0
    7.0682    5.2086    1.1699 C   0  0  2  0  0  0  0  0  0  0  0  0
    7.2023    6.2888    1.3438 H   0  0  0  0  0  0  0  0  0  0  0  0
    6.0732    5.0046    0.0438 C   0  0  0  0  0  0  0  0  0  0  0  0
    4.7092    5.5752    0.4108 C   0  0  2  0  0  0  0  0  0  0  0  0
    4.7888    6.6524    0.6020 H   0  0  0  0  0  0  0  0  0  0  0  0
    4.1414    4.8941    1.6942 C   0  0  1  0  0  0  0  0  0  0  0  0
    3.8791    3.8488    1.4819 H   0  0  0  0  0  0  0  0  0  0  0  0
    5.1668    4.9234    2.8634 C   0  0  1  0  0  0  0  0  0  0  0  0
    5.1640    5.9240    3.3122 H   0  0  0  0  0  0  0  0  0  0  0  0
    4.6996    4.0477    3.9159 O   0  0  0  0  0  0  0  0  0  0  0  0
    2.9578    5.5431    2.2282 O   0  0  0  0  0  0  0  0  0  0  0  0
    1.8935    5.7063    1.2970 C   0  0  2  0  0  0  0  0  0  0  0  0
    2.2258    6.3743    0.5021 H   0  0  0  0  0  0  0  0  0  0  0  0
    0.7094    6.4283    1.9793 C   0  0  1  0  0  0  0  0  0  0  0  0
    1.0499    7.3884    2.3796 H   0  0  0  0  0  0  0  0  0  0  0  0
   -0.4380    6.6175    0.9540 C   0  0  2  0  0  0  0  0  0  0  0  0
   -1.3482    6.9430    1.4751 H   0  0  0  0  0  0  0  0  0  0  0  0
   -0.7652    5.2530    0.2487 C   0  0  1  0  0  0  0  0  0  0  0  0
    0.5281    4.5952   -0.2625 C   0  0  0  0  0  0  0  0  0  0  0  0
    1.4841    4.4385    0.7867 O   0  0  0  0  0  0  0  0  0  0  0  0
   -1.5005    4.2700    1.1660 C   0  0  0  0  0  0  0  0  0  0  0  0
   -1.6279    5.5060   -0.8764 O   0  0  0  0  0  0  0  0  0  0  0  0
   -0.1711    7.6260   -0.1212 N   0  0  0  0  0  0  0  0  0  0  0  0
   -0.0302    8.9870    0.3953 C   0  0  0  0  0  0  0  0  0  0  0  0
    0.2282    5.7013    3.1206 O   0  0  0  0  0  0  0  0  0  0  0  0
    3.8632    5.4199   -0.7901 N   0  0  0  0  0  0  0  0  0  0  0  0
    8.3673    4.6826    0.7191 N   0  0  0  0  0  0  0  0  0  0  0  0
    8.2763    4.9850    7.7253 H   0  0  0  0  0  0  0  0  0  0  0  0
    9.9311    4.6037    7.3051 H   0  0  0  0  0  0  0  0  0  0  0  0
    8.7610    2.4868    7.8692 H   0  0  0  0  0  0  0  0  0  0  0  0
    6.5917    0.8258    5.8499 H   0  0  0  0  0  0  0  0  0  0  0  0
    7.9761    0.4859    6.8847 H   0  0  0  0  0  0  0  0  0  0  0  0
    8.0782    0.6806    3.9747 H   0  0  0  0  0  0  0  0  0  0  0  0
    7.9416   -0.7227    4.7967 H   0  0  0  0  0  0  0  0  0  0  0  0
   10.2220    4.3761    4.5314 H   0  0  0  0  0  0  0  0  0  0  0  0
   10.7044    5.5978    5.5143 H   0  0  0  0  0  0  0  0  0  0  0  0
    5.9835    3.9363   -0.1997 H   0  0  0  0  0  0  0  0  0  0  0  0
    6.4445    5.5047   -0.8623 H   0  0  0  0  0  0  0  0  0  0  0  0
    4.4985    3.1801    3.5217 H   0  0  0  0  0  0  0  0  0  0  0  0
    0.9711    5.1669   -1.0877 H   0  0  0  0  0  0  0  0  0  0  0  0
    0.3168    3.6034   -0.6782 H   0  0  0  0  0  0  0  0  0  0  0  0
   -0.8544    3.8532    1.9440 H   0  0  0  0  0  0  0  0  0  0  0  0
   -1.8967    3.4280    0.5866 H   0  0  0  0  0  0  0  0  0  0  0  0
   -2.3585    4.7498    1.6474 H   0  0  0  0  0  0  0  0  0  0  0  0
   -1.4670    6.4455   -1.1088 H   0  0  0  0  0  0  0  0  0  0  0  0
    0.6723    7.3925   -0.6461 H   0  0  0  0  0  0  0  0  0  0  0  0
   -0.8806    9.2723    1.0194 H   0  0  0  0  0  0  0  0  0  0  0  0
    0.0102    9.6870   -0.4467 H   0  0  0  0  0  0  0  0  0  0  0  0
    0.8973    9.1126    0.9628 H   0  0  0  0  0  0  0  0  0  0  0  0
    0.9645    5.1215    3.4005 H   0  0  0  0  0  0  0  0  0  0  0  0
    3.6954    4.4275   -0.9701 H   0  0  0  0  0  0  0  0  0  0  0  0
    4.3425    5.7838   -1.6138 H   0  0  0  0  0  0  0  0  0  0  0  0
    9.0273    4.7958    1.4924 H   0  0  0  0  0  0  0  0  0  0  0  0
    8.7266    5.2631   -0.0422 H   0  0  0  0  0  0  0  0  0  0  0  0
  1  2  1  0  0  0  0
  1  3  1  1  0  0  0
  1 10  1  0  0  0  0
  1 12  1  0  0  0  0
  3  5  1  0  0  0  0
  3 11  1  0  0  0  0
  3  4  1  1  0  0  0
  5  6  1  0  0  0  0
  5 42  1  0  0  0  0
  5 43  1  0  0  0  0
  6  7  2  0  0  0  0
  6 44  1  0  0  0  0
  7  8  1  0  0  0  0
  7 10  1  0  0  0  0
  8  9  1  0  0  0  0
  8 45  1  0  0  0  0
  8 46  1  0  0  0  0
  9 47  1  0  0  0  0
  9 48  1  0  0  0  0
 11 49  1  0  0  0  0
 11 50  1  0  0  0  0
 13 15  1  6  0  0  0
 13 14  1  0  0  0  0
 13 12  1  0  0  0  0
 15 16  1  1  0  0  0
 15 17  1  0  0  0  0
 15 41  1  0  0  0  0
 17 18  1  0  0  0  0
 17 51  1  0  0  0  0
 17 52  1  0  0  0  0
 18 20  1  1  0  0  0
 18 40  1  0  0  0  0
 18 19  1  0  0  0  0
 20 21  1  0  0  0  0
 20 22  1  1  0  0  0
 20 25  1  0  0  0  0
 22 13  1  6  0  0  0
 22 24  1  0  0  0  0
 22 23  1  0  0  0  0
 24 53  1  0  0  0  0
 26 28  1  1  0  0  0
 26 34  1  0  0  0  0
 26 27  1  0  0  0  0
 26 25  1  0  0  0  0
 28 30  1  6  0  0  0
 28 39  1  0  0  0  0
 28 29  1  0  0  0  0
 30 32  1  6  0  0  0
 30 37  1  0  0  0  0
 30 31  1  0  0  0  0
 32 33  1  0  0  0  0
 32 36  1  6  0  0  0
 32 35  1  0  0  0  0
 33 34  1  0  0  0  0
 33 54  1  0  0  0  0
 33 55  1  0  0  0  0
 35 56  1  0  0  0  0
 35 57  1  0  0  0  0
 35 58  1  0  0  0  0
 36 59  1  0  0  0  0
 37 38  1  0  0  0  0
 37 60  1  0  0  0  0
 38 61  1  0  0  0  0
 38 62  1  0  0  0  0
 38 63  1  0  0  0  0
 39 64  1  0  0  0  0
 40 65  1  0  0  0  0
 40 66  1  0  0  0  0
 41 67  1  0  0  0  0
 41 68  1  0  0  0  0
M  END
$$$$
