@<TRIPOS>MOLECULE
4F8U_SIS_A_101
 68 70 0 0 0
SMALL
GASTEIGER

@<TRIPOS>ATOM
      1 C           7.5505    4.4674    4.7844 C.3     1  UNL1        0.2172
      2 H           6.5936    4.6817    5.2741 H       1  UNL1        0.1072
      3 C           8.6797    5.1798    5.6081 C.3     1  UNL1        0.0717
      4 H           8.3599    6.2132    5.7901 H       1  UNL1        0.0523
      5 C           8.8941    4.4933    6.9652 C.3     1  UNL1       -0.0102
      6 C           8.5478    3.0413    6.9614 C.2     1  UNL1       -0.0434
      7 C           8.0173    2.4120    5.9013 C.2     1  UNL1        0.1108
      8 C           7.6776    0.9384    5.9331 C.3     1  UNL1        0.0513
      9 N           8.3291    0.2160    4.8485 N.3     1  UNL1       -0.3237
     10 O           7.7300    3.0452    4.7076 O.2     1  UNL1       -0.4653
     11 N           9.9687    5.3032    4.8770 N.3     1  UNL1       -0.3221
     12 O           7.5498    5.0659    3.4764 O.3     1  UNL1       -0.3328
     13 C           6.6210    4.5516    2.5004 C.3     1  UNL1        0.1061
     14 H           6.7316    3.4612    2.4342 H       1  UNL1        0.0640
     15 C           7.0682    5.2086    1.1699 C.3     1  UNL1        0.0355
     16 H           7.2023    6.2888    1.3438 H       1  UNL1        0.0485
     17 C           6.0732    5.0046    0.0438 C.3     1  UNL1       -0.0175
     18 C           4.7092    5.5752    0.4108 C.3     1  UNL1        0.0355
     19 H           4.7888    6.6524    0.6020 H       1  UNL1        0.0485
     20 C           4.1414    4.8941    1.6942 C.3     1  UNL1        0.1051
     21 H           3.8791    3.8488    1.4819 H       1  UNL1        0.0639
     22 C           5.1668    4.9234    2.8634 C.3     1  UNL1        0.1105
     23 H           5.1640    5.9240    3.3122 H       1  UNL1        0.0646
     24 O           4.6996    4.0477    3.9159 O.3     1  UNL1       -0.3865
     25 O           2.9578    5.5431    2.2282 O.3     1  UNL1       -0.3413
     26 C           1.8935    5.7063    1.2970 C.3     1  UNL1        0.1870
     27 H           2.2258    6.3743    0.5021 H       1  UNL1        0.0937
     28 C           0.7094    6.4283    1.9793 C.3     1  UNL1        0.1239
     29 H           1.0499    7.3884    2.3796 H       1  UNL1        0.0661
     30 C          -0.4380    6.6175    0.9540 C.3     1  UNL1        0.0692
     31 H          -1.3482    6.9430    1.4751 H       1  UNL1        0.0517
     32 C          -0.7652    5.2530    0.2487 C.3     1  UNL1        0.1043
     33 C           0.5281    4.5952   -0.2625 C.3     1  UNL1        0.0808
     34 O           1.4841    4.4385    0.7867 O.3     1  UNL1       -0.3459
     35 C          -1.5005    4.2700    1.1660 C.3     1  UNL1       -0.0323
     36 O          -1.6279    5.5060   -0.8764 O.3     1  UNL1       -0.3849
     37 N          -0.1711    7.6260   -0.1212 N.3     1  UNL1       -0.3115
     38 C          -0.0302    8.9870    0.3953 C.3     1  UNL1       -0.0154
     39 O           0.2282    5.7013    3.1206 O.3     1  UNL1       -0.3851
     40 N           3.8632    5.4199   -0.7901 N.3     1  UNL1       -0.3250
     41 N           8.3673    4.6826    0.7191 N.3     1  UNL1       -0.3250
     42 H           8.2763    4.9850    7.7253 H       1  UNL1        0.0325
     43 H           9.9311    4.6037    7.3051 H       1  UNL1        0.0325
     44 H           8.7610    2.4868    7.8692 H       1  UNL1        0.0606
     45 H           6.5917    0.8258    5.8499 H       1  UNL1        0.0502
     46 H           7.9761    0.4859    6.8847 H       1  UNL1        0.0502
     47 H           8.0782    0.6806    3.9747 H       1  UNL1        0.1186
     48 H           7.9416   -0.7227    4.7967 H       1  UNL1        0.1186
     49 H          10.2220    4.3761    4.5314 H       1  UNL1        0.1187
     50 H          10.7044    5.5978    5.5143 H       1  UNL1        0.1187
     51 H           5.9835    3.9363   -0.1997 H       1  UNL1        0.0297
     52 H           6.4445    5.5047   -0.8623 H       1  UNL1        0.0297
     53 H           4.4985    3.1801    3.5217 H       1  UNL1        0.2100
     54 H           0.9711    5.1669   -1.0877 H       1  UNL1        0.0590
     55 H           0.3168    3.6034   -0.6782 H       1  UNL1        0.0590
     56 H          -0.8544    3.8532    1.9440 H       1  UNL1        0.0258
     57 H          -1.8967    3.4280    0.5866 H       1  UNL1        0.0258
     58 H          -2.3585    4.7498    1.6474 H       1  UNL1        0.0258
     59 H          -1.4670    6.4455   -1.1088 H       1  UNL1        0.2103
     60 H           0.6723    7.3925   -0.6461 H       1  UNL1        0.1221
     61 H          -0.8806    9.2723    1.0194 H       1  UNL1        0.0388
     62 H           0.0102    9.6870   -0.4467 H       1  UNL1        0.0388
     63 H           0.8973    9.1126    0.9628 H       1  UNL1        0.0388
     64 H           0.9645    5.1215    3.4005 H       1  UNL1        0.2101
     65 H           3.6954    4.4275   -0.9701 H       1  UNL1        0.1185
     66 H           4.3425    5.7838   -1.6138 H       1  UNL1        0.1185
     67 H           9.0273    4.7958    1.4924 H       1  UNL1        0.1185
     68 H           8.7266    5.2631   -0.0422 H       1  UNL1        0.1185
@<TRIPOS>BOND
     1     1     2    1
     2     1     3    1
     3     1    10    1
     4     1    12    1
     5     3     5    1
     6     3    11    1
     7     3     4    1
     8     5     6    1
     9     5    42    1
    10     5    43    1
    11     6     7    2
    12     6    44    1
    13     7     8    1
    14     7    10    1
    15     8     9    1
    16     8    45    1
    17     8    46    1
    18     9    47    1
    19     9    48    1
    20    11    49    1
    21    11    50    1
    22    13    15    1
    23    13    14    1
    24    13    12    1
    25    15    16    1
    26    15    17    1
    27    15    41    1
    28    17    18    1
    29    17    51    1
    30    17    52    1
    31    18    20    1
    32    18    40    1
    33    18    19    1
    34    20    21    1
    35    20    22    1
    36    20    25    1
    37    22    13    1
    38    22    24    1
    39    22    23    1
    40    24    53    1
    41    26    28    1
    42    26    34    1
    43    26    27    1
    44    26    25    1
    45    28    30    1
    46    28    39    1
    47    28    29    1
    48    30    32    1
    49    30    37    1
    50    30    31    1
    51    32    33    1
    52    32    36    1
    53    32    35    1
    54    33    34    1
    55    33    54    1
    56    33    55    1
    57    35    56    1
    58    35    57    1
    59    35    58    1
    60    36    59    1
    61    37    38    1
    62    37    60    1
    63    38    61    1
    64    38    62    1
    65    38    63    1
    66    39    64    1
    67    40    65    1
    68    40    66    1
    69    41    67    1
    70    41    68    1
