@<TRIPOS>MOLECULE
1MWL_GET_A_45
 74 76 0 0 0
SMALL
GASTEIGER

@<TRIPOS>ATOM
      1 C          -1.3021    5.2761    1.9515 C.3     1  UNL1        0.1776
      2 H          -1.7332    4.9338    2.9008 H       1  UNL1        0.0927
      3 O          -2.2703    4.8492    0.9835 O.3     1  UNL1       -0.3422
      4 C          -2.0650    5.1718   -0.4118 C.3     1  UNL1        0.1051
      5 H          -2.1659    6.2519   -0.5450 H       1  UNL1        0.0639
      6 C          -3.2559    4.4955   -1.1445 C.3     1  UNL1        0.0355
      7 H          -3.2787    3.4316   -0.8712 H       1  UNL1        0.0485
      8 C          -3.1703    4.6254   -2.6617 C.3     1  UNL1       -0.0175
      9 C          -1.8734    4.0108   -3.1894 C.3     1  UNL1        0.0355
     10 H          -1.8206    2.9490   -2.9216 H       1  UNL1        0.0485
     11 N          -1.9080    4.0825   -4.6614 N.3     1  UNL1       -0.3250
     12 C          -0.6700    4.7476   -2.5570 C.3     1  UNL1        0.1051
     13 H          -0.6816    5.8051   -2.8542 H       1  UNL1        0.0639
     14 C          -0.7206    4.6858   -1.0120 C.3     1  UNL1        0.1104
     15 H          -0.5199    3.6614   -0.6746 H       1  UNL1        0.0646
     16 O           0.3904    5.4787   -0.5403 O.3     1  UNL1       -0.3865
     17 O           0.6169    4.1990   -2.8913 O.3     1  UNL1       -0.3413
     18 C           1.0013    4.3273   -4.2523 C.3     1  UNL1        0.1870
     19 H           0.3739    3.6777   -4.8630 H       1  UNL1        0.0937
     20 C           2.4521    3.8167   -4.3611 C.3     1  UNL1        0.1239
     21 H           2.5202    2.8017   -3.9603 H       1  UNL1        0.0661
     22 O           3.3399    4.5862   -3.5304 O.3     1  UNL1       -0.3851
     23 C           2.9003    3.8831   -5.8379 C.3     1  UNL1        0.0692
     24 H           3.9734    3.6594   -5.9022 H       1  UNL1        0.0517
     25 N           2.2095    2.9176   -6.7481 N.3     1  UNL1       -0.3115
     26 C           2.2788    1.5243   -6.3324 C.3     1  UNL1       -0.0154
     27 C           2.6794    5.3463   -6.3856 C.3     1  UNL1        0.1043
     28 O           2.8730    5.3720   -7.8134 O.3     1  UNL1       -0.3849
     29 C           3.6742    6.3616   -5.8090 C.3     1  UNL1       -0.0323
     30 C           1.2363    5.8046   -6.0749 C.3     1  UNL1        0.0808
     31 O           0.9188    5.6854   -4.6911 O.3     1  UNL1       -0.3459
     32 N          -4.5430    5.0753   -0.7127 N.3     1  UNL1       -0.3250
     33 C          -1.1425    6.8306    2.0923 C.3     1  UNL1        0.0853
     34 H          -2.1176    7.2270    2.3998 H       1  UNL1        0.0535
     35 N          -0.7738    7.5711    0.8603 N.3     1  UNL1       -0.3211
     36 C          -0.0911    7.0961    3.1910 C.3     1  UNL1        0.1033
     37 H           0.1033    8.1751    3.2378 H       1  UNL1        0.0637
     38 O          -0.6215    6.7330    4.4663 O.3     1  UNL1       -0.3874
     39 C           1.2239    6.3578    2.8856 C.3     1  UNL1        0.1112
     40 H           1.9281    6.4989    3.7119 H       1  UNL1        0.0646
     41 O           1.8563    6.9401    1.7313 O.3     1  UNL1       -0.3865
     42 C           1.0009    4.8449    2.6441 C.3     1  UNL1        0.1155
     43 H           1.8802    4.4878    2.0906 H       1  UNL1        0.0650
     44 O          -0.1023    4.5315    1.7976 O.3     1  UNL1       -0.3412
     45 C           0.9568    4.0380    3.9617 C.3     1  UNL1        0.0811
     46 H           0.1567    4.4014    4.6108 H       1  UNL1        0.0617
     47 O           2.1900    4.2098    4.6726 O.3     1  UNL1       -0.3894
     48 C           0.7305    2.5449    3.7487 C.3     1  UNL1       -0.0364
     49 H          -3.2229    5.6860   -2.9519 H       1  UNL1        0.0297
     50 H          -4.0341    4.1322   -3.1273 H       1  UNL1        0.0297
     51 H          -1.8515    5.0592   -4.9568 H       1  UNL1        0.1185
     52 H          -2.8002    3.7305   -5.0076 H       1  UNL1        0.1185
     53 H           0.5660    6.1770   -1.1927 H       1  UNL1        0.2100
     54 H           2.8013    4.8671   -2.7630 H       1  UNL1        0.2101
     55 H           1.2294    3.1783   -6.8721 H       1  UNL1        0.1221
     56 H           3.3113    1.1678   -6.3265 H       1  UNL1        0.0388
     57 H           1.7181    0.9102   -7.0465 H       1  UNL1        0.0388
     58 H           1.8265    1.3477   -5.3520 H       1  UNL1        0.0388
     59 H           3.4079    4.5851   -8.0322 H       1  UNL1        0.2103
     60 H           4.6961    5.9701   -5.8364 H       1  UNL1        0.0258
     61 H           3.4380    6.6549   -4.7819 H       1  UNL1        0.0258
     62 H           3.6832    7.2768   -6.4115 H       1  UNL1        0.0258
     63 H           0.5038    5.2546   -6.6745 H       1  UNL1        0.0590
     64 H           1.1107    6.8589   -6.3633 H       1  UNL1        0.0590
     65 H          -4.5350    5.0967    0.3098 H       1  UNL1        0.1185
     66 H          -5.3085    4.4585   -0.9808 H       1  UNL1        0.1185
     67 H           0.1174    7.1549    0.5501 H       1  UNL1        0.1187
     68 H          -0.5909    8.5475    1.0708 H       1  UNL1        0.1187
     69 H           0.0930    6.8007    5.1259 H       1  UNL1        0.2100
     70 H           2.0198    7.8799    1.9172 H       1  UNL1        0.2100
     71 H           2.8875    3.7666    4.1531 H       1  UNL1        0.2099
     72 H           1.5156    2.1114    3.1199 H       1  UNL1        0.0255
     73 H          -0.2415    2.3450    3.2891 H       1  UNL1        0.0255
     74 H           0.7726    2.0181    4.7091 H       1  UNL1        0.0255
@<TRIPOS>BOND
     1     1    44    1
     2     1     3    1
     3     1     2    1
     4     4     6    1
     5     4     5    1
     6     4     3    1
     7     6     7    1
     8     6     8    1
     9     6    32    1
    10     8     9    1
    11     8    49    1
    12     8    50    1
    13     9    12    1
    14     9    11    1
    15     9    10    1
    16    11    51    1
    17    11    52    1
    18    12    13    1
    19    12    14    1
    20    12    17    1
    21    14     4    1
    22    14    16    1
    23    14    15    1
    24    16    53    1
    25    18    20    1
    26    18    31    1
    27    18    19    1
    28    18    17    1
    29    20    23    1
    30    20    22    1
    31    20    21    1
    32    22    54    1
    33    23    27    1
    34    23    25    1
    35    23    24    1
    36    25    26    1
    37    25    55    1
    38    26    56    1
    39    26    57    1
    40    26    58    1
    41    27    28    1
    42    27    29    1
    43    27    30    1
    44    28    59    1
    45    29    60    1
    46    29    61    1
    47    29    62    1
    48    30    31    1
    49    30    63    1
    50    30    64    1
    51    32    65    1
    52    32    66    1
    53    33     1    1
    54    33    35    1
    55    33    34    1
    56    35    67    1
    57    35    68    1
    58    36    33    1
    59    36    38    1
    60    36    37    1
    61    38    69    1
    62    39    36    1
    63    39    40    1
    64    39    41    1
    65    41    70    1
    66    42    39    1
    67    42    44    1
    68    42    45    1
    69    42    43    1
    70    45    48    1
    71    45    47    1
    72    45    46    1
    73    47    71    1
    74    48    72    1
    75    48    73    1
    76    48    74    1
