REMARK  15 active torsions:
REMARK  status: ('A' for Active; 'I' for Inactive)
REMARK    1  A    between atoms: C_1  and  O_2 
REMARK    2  A    between atoms: C_3  and  O_2 
REMARK    3  A    between atoms: C_4  and  N_23 
REMARK    4  A    between atoms: C_6  and  N_7 
REMARK    5  A    between atoms: C_8  and  O_11 
REMARK    6  A    between atoms: C_9  and  O_10 
REMARK    7  A    between atoms: C_12  and  O_11 
REMARK    8  A    between atoms: C_13  and  O_14 
REMARK    9  A    between atoms: C_15  and  N_16 
REMARK   10  A    between atoms: C_18  and  O_19 
REMARK   11  A    between atoms: C_24  and  N_25 
REMARK   12  A    between atoms: C_26  and  O_27 
REMARK   13  A    between atoms: C_28  and  O_29 
REMARK   14  A    between atoms: C_30  and  C_32 
REMARK   15  A    between atoms: C_32  and  O_33 
ROOT
ATOM      1  C   UNL d   1      -2.065   5.172  -0.412  0.00  0.00     0.189 C 
ATOM      2  C   UNL d   1      -3.256   4.495  -1.145  0.00  0.00     0.251 C 
ATOM      3  C   UNL d   1      -3.170   4.625  -2.662  0.00  0.00     0.076 C 
ATOM      4  C   UNL d   1      -1.873   4.011  -3.189  0.00  0.00     0.251 C 
ATOM      5  C   UNL d   1      -0.670   4.748  -2.557  0.00  0.00     0.189 C 
ATOM      6  C   UNL d   1      -0.721   4.686  -1.012  0.00  0.00     0.180 C 
ENDROOT
BRANCH   1   7
ATOM      7  O   UNL d   1      -2.270   4.849   0.984  0.00  0.00    -0.349 OA
BRANCH   7   8
ATOM      8  C   UNL d   1      -1.302   5.276   1.952  0.00  0.00     0.296 C 
ATOM      9  O   UNL d   1      -0.102   4.532   1.798  0.00  0.00    -0.348 OA
ATOM     10  C   UNL d   1       1.001   4.845   2.644  0.00  0.00     0.184 C 
ATOM     11  C   UNL d   1       1.224   6.358   2.886  0.00  0.00     0.180 C 
ATOM     12  C   UNL d   1      -0.091   7.096   3.191  0.00  0.00     0.187 C 
ATOM     13  C   UNL d   1      -1.143   6.831   2.092  0.00  0.00     0.303 C 
BRANCH  10  14
ATOM     14  C   UNL d   1       0.957   4.038   3.962  0.00  0.00     0.145 C 
ATOM     15  C   UNL d   1       0.731   2.545   3.749  0.00  0.00     0.042 C 
BRANCH  14  16
ATOM     16  O   UNL d   1       2.190   4.210   4.673  0.00  0.00    -0.393 OA
ATOM     17  H   UNL d   1       2.888   3.767   4.153  0.00  0.00     0.210 HD
ENDBRANCH  14  16
ENDBRANCH  10  14
BRANCH  11  18
ATOM     18  O   UNL d   1       1.856   6.940   1.731  0.00  0.00    -0.390 OA
ATOM     19  H   UNL d   1       2.020   7.880   1.917  0.00  0.00     0.210 HD
ENDBRANCH  11  18
BRANCH  12  20
ATOM     20  O   UNL d   1      -0.622   6.733   4.466  0.00  0.00    -0.391 OA
ATOM     21  H   UNL d   1       0.093   6.801   5.126  0.00  0.00     0.210 HD
ENDBRANCH  12  20
BRANCH  13  22
ATOM     22  N   UNL d   1      -0.774   7.571   0.860  0.00  0.00     0.090 N 
ATOM     23  H   UNL d   1       0.117   7.155   0.550  0.00  0.00     0.313 HD
ATOM     24  H   UNL d   1      -0.591   8.547   1.071  0.00  0.00     0.313 HD
ENDBRANCH  13  22
ENDBRANCH   7   8
ENDBRANCH   1   7
BRANCH   2  25
ATOM     25  N   UNL d   1      -4.543   5.075  -0.713  0.00  0.00     0.085 N 
ATOM     26  H   UNL d   1      -4.535   5.097   0.310  0.00  0.00     0.313 HD
ATOM     27  H   UNL d   1      -5.309   4.458  -0.981  0.00  0.00     0.313 HD
ENDBRANCH   2  25
BRANCH   6  28
ATOM     28  O   UNL d   1       0.390   5.479  -0.540  0.00  0.00    -0.390 OA
ATOM     29  H   UNL d   1       0.566   6.177  -1.193  0.00  0.00     0.210 HD
ENDBRANCH   6  28
BRANCH   5  30
ATOM     30  O   UNL d   1       0.617   4.199  -2.891  0.00  0.00    -0.348 OA
BRANCH  30  31
ATOM     31  C   UNL d   1       1.001   4.327  -4.252  0.00  0.00     0.291 C 
ATOM     32  C   UNL d   1       2.452   3.817  -4.361  0.00  0.00     0.209 C 
ATOM     33  C   UNL d   1       2.900   3.883  -5.838  0.00  0.00     0.288 C 
ATOM     34  C   UNL d   1       2.679   5.346  -6.386  0.00  0.00     0.109 C 
ATOM     35  C   UNL d   1       3.674   6.362  -5.809  0.00  0.00     0.050 C 
ATOM     36  C   UNL d   1       1.236   5.805  -6.075  0.00  0.00     0.210 C 
ATOM     37  O   UNL d   1       0.919   5.685  -4.691  0.00  0.00    -0.356 OA
BRANCH  32  38
ATOM     38  O   UNL d   1       3.340   4.586  -3.530  0.00  0.00    -0.388 OA
ATOM     39  H   UNL d   1       2.801   4.867  -2.763  0.00  0.00     0.210 HD
ENDBRANCH  32  38
BRANCH  33  40
ATOM     40  N   UNL d   1       2.209   2.918  -6.748  0.00  0.00     0.089 N 
ATOM     41  C   UNL d   1       2.279   1.524  -6.332  0.00  0.00     0.307 C 
ATOM     42  H   UNL d   1       1.229   3.178  -6.872  0.00  0.00     0.316 HD
ENDBRANCH  33  40
BRANCH  34  43
ATOM     43  O   UNL d   1       2.873   5.372  -7.813  0.00  0.00    -0.386 OA
ATOM     44  H   UNL d   1       3.408   4.585  -8.032  0.00  0.00     0.210 HD
ENDBRANCH  34  43
ENDBRANCH  30  31
ENDBRANCH   5  30
BRANCH   4  45
ATOM     45  N   UNL d   1      -1.908   4.082  -4.661  0.00  0.00     0.085 N 
ATOM     46  H   UNL d   1      -1.851   5.059  -4.957  0.00  0.00     0.313 HD
ATOM     47  H   UNL d   1      -2.800   3.731  -5.008  0.00  0.00     0.313 HD
ENDBRANCH   4  45
TORSDOF 15
