@<TRIPOS>MOLECULE
3E5E_SAH_A_220
 26 28 0 0 0
SMALL
GASTEIGER
****
Coordinates from PDB:3E5E:A:220 Model:1 without hydrogens
@<TRIPOS>ATOM
      1 N1        -14.0790    7.4170  -16.4490 N.3     1  <1>        -0.1208
      2 C1        -15.1040    8.2470  -17.0940 C.3     1  <1>         0.1952
      3 C2        -14.7670    8.4110  -18.5770 C.3     1  <1>         0.0422
      4 C3        -13.4040    9.0860  -18.7190 C.3     1  <1>         0.0597
      5 S1        -13.0070    9.9420  -20.1310 S.3     1  <1>        -0.1375
      6 C4        -16.4480    7.5820  -16.9540 C.2     1  <1>         0.3819
      7 O1        -16.5240    6.3770  -16.8970 O.co2   1  <1>        -0.2441
      8 O2        -17.5640    8.3270  -16.8950 O.co2   1  <1>        -0.2441
      9 C5        -11.6150   10.9090  -20.7700 C.3     1  <1>         0.0898
     10 C6        -11.9330   11.7460  -22.0150 C.3     1  <1>         0.1610
     11 O3        -11.8260   13.1370  -21.7730 O.3     1  <1>        -0.3323
     12 C7        -10.9350   11.5150  -23.1250 C.3     1  <1>         0.2144
     13 O4        -11.6170   11.8730  -24.3070 O.3     1  <1>        -0.2176
     14 C8         -9.8390   12.5280  -22.8890 C.3     1  <1>         0.2337
     15 O5         -9.4200   13.0710  -24.1220 O.3     1  <1>        -0.2155
     16 C9        -10.5230   13.6020  -22.0710 C.3     1  <1>         0.2409
     17 N2         -9.8660   13.9080  -20.7870 N.ar    1  <1>        -0.2693
     18 C10       -10.1370   13.3430  -19.5670 C.ar    1  <1>         0.1816
     19 N3         -9.3590   13.9240  -18.6330 N.ar    1  <1>        -0.2193
     20 C11        -8.6030   14.8660  -19.2400 C.ar    1  <1>         0.1518
     21 C12        -7.6440   15.7540  -18.7670 C.ar    1  <1>         0.1919
     22 N4         -7.3130   15.7830  -17.4820 N.pl3   1  <1>        -0.1054
     23 N5         -7.0280   16.6160  -19.6390 N.ar    1  <1>        -0.2040
     24 C13        -7.3520   16.6020  -20.9750 C.ar    1  <1>         0.2016
     25 N6         -8.2990   15.7180  -21.4330 N.ar    1  <1>        -0.2048
     26 C14        -8.9130   14.8680  -20.5870 C.ar    1  <1>         0.1692
@<TRIPOS>BOND
     1     2     1    1
     2     2     3    1
     3     2     6    1
     4     3     4    1
     5     4     5    1
     6     5     9    1
     7     6     7   ar
     8     6     8   ar
     9    10     9    1
    10    10    11    1
    11    10    12    1
    12    11    16    1
    13    12    13    1
    14    12    14    1
    15    14    15    1
    16    14    16    1
    17    16    17    1
    18    17    18   ar
    19    17    26   ar
    20    18    19   ar
    21    19    20   ar
    22    20    21   ar
    23    20    26   ar
    24    21    22    1
    25    21    23   ar
    26    23    24   ar
    27    24    25   ar
    28    25    26   ar
