REMARK  7 active torsions:
REMARK  status: ('A' for Active; 'I' for Inactive)
REMARK    1  A    between atoms: C1_2  and  C2_3 
REMARK    2  A    between atoms: C1_2  and  C4_6 
REMARK    3  A    between atoms: C2_3  and  C3_4 
REMARK    4  A    between atoms: C3_4  and  S1_5 
REMARK    5  A    between atoms: S1_5  and  C5_9 
REMARK    6  A    between atoms: C6_10  and  C5_9 
REMARK    7  A    between atoms: C9_16  and  N2_17 
ROOT
ATOM      1  C6  <1> d         -11.933  11.746 -22.015  0.00  0.00     0.161 C 
ATOM      2  O3  <1> d         -11.826  13.137 -21.773  0.00  0.00    -0.333 OA
ATOM      3  C7  <1> d         -10.935  11.515 -23.125  0.00  0.00     0.215 C 
ATOM      4  O4  <1> d         -11.617  11.873 -24.307  0.00  0.00    -0.218 OA
ATOM      5  C8  <1> d          -9.839  12.528 -22.889  0.00  0.00     0.234 C 
ATOM      6  O5  <1> d          -9.420  13.071 -24.122  0.00  0.00    -0.216 OA
ATOM      7  C9  <1> d         -10.523  13.602 -22.071  0.00  0.00     0.241 C 
ENDROOT
BRANCH   7   8
ATOM      8  N2  <1> d          -9.866  13.908 -20.787  0.00  0.00    -0.270 N 
ATOM      9  C10 <1> d         -10.137  13.343 -19.567  0.00  0.00     0.182 A 
ATOM     10  N3  <1> d          -9.359  13.924 -18.633  0.00  0.00    -0.219 NA
ATOM     11  C11 <1> d          -8.603  14.866 -19.240  0.00  0.00     0.155 A 
ATOM     12  C12 <1> d          -7.644  15.754 -18.767  0.00  0.00     0.206 A 
ATOM     13  C14 <1> d          -8.913  14.868 -20.587  0.00  0.00     0.170 A 
ATOM     14  N4  <1> d          -7.313  15.783 -17.482  0.00  0.00    -0.125 N 
ATOM     15  N5  <1> d          -7.028  16.616 -19.639  0.00  0.00    -0.202 NA
ATOM     16  C13 <1> d          -7.352  16.602 -20.975  0.00  0.00     0.202 A 
ATOM     17  N6  <1> d          -8.299  15.718 -21.433  0.00  0.00    -0.205 NA
ENDBRANCH   7   8
BRANCH   1  18
ATOM     18  C5  <1> d         -11.615  10.909 -20.770  0.00  0.00     0.090 C 
BRANCH  18  19
ATOM     19  S1  <1> d         -13.007   9.942 -20.131  0.00  0.00    -0.138 SA
BRANCH  19  20
ATOM     20  C3  <1> d         -13.404   9.086 -18.719  0.00  0.00     0.060 C 
BRANCH  20  21
ATOM     21  C2  <1> d         -14.767   8.411 -18.577  0.00  0.00     0.062 C 
BRANCH  21  22
ATOM     22  C1  <1> d         -15.104   8.247 -17.094  0.00  0.00     0.388 C 
ATOM     23  N1  <1> d         -14.079   7.417 -16.449  0.00  0.00     0.628 N 
BRANCH  22  24
ATOM     24  C4  <1> d         -16.448   7.582 -16.954  0.00  0.00     0.224 C 
ATOM     25  O1  <1> d         -16.524   6.377 -16.897  0.00  0.00    -0.646 OA
ATOM     26  O2  <1> d         -17.564   8.327 -16.895  0.00  0.00    -0.646 OA
ENDBRANCH  22  24
ENDBRANCH  21  22
ENDBRANCH  20  21
ENDBRANCH  19  20
ENDBRANCH  18  19
ENDBRANCH   1  18
TORSDOF 7
