3E5E_SAH_A_220
 OpenBabel10091713573D
Coordinates from PDB:3E5E:A:220 Model:1 without hydrogens
 46 48  0  0  0  0  0  0  0  0999 V2000
  -14.0790    7.4170  -16.4490 N   0  0  0  0  0  0  0  0  0  0  0  0
  -15.1040    8.2470  -17.0940 C   0  0  1  0  0  0  0  0  0  0  0  0
  -14.7670    8.4110  -18.5770 C   0  0  0  0  0  0  0  0  0  0  0  0
  -13.4040    9.0860  -18.7190 C   0  0  0  0  0  0  0  0  0  0  0  0
  -13.0070    9.9420  -20.1310 S   0  0  0  0  0  0  0  0  0  0  0  0
  -16.4480    7.5820  -16.9540 C   0  0  0  0  0  0  0  0  0  0  0  0
  -16.5240    6.3770  -16.8970 O   0  0  0  0  0  0  0  0  0  0  0  0
  -17.5640    8.3270  -16.8950 O   0  0  0  0  0  0  0  0  0  0  0  0
  -11.6150   10.9090  -20.7700 C   0  0  0  0  0  0  0  0  0  0  0  0
  -11.9330   11.7460  -22.0150 C   0  0  1  0  0  0  0  0  0  0  0  0
  -11.8260   13.1370  -21.7730 O   0  0  0  0  0  0  0  0  0  0  0  0
  -10.9350   11.5150  -23.1250 C   0  0  1  0  0  0  0  0  0  0  0  0
  -11.6170   11.8730  -24.3070 O   0  0  0  0  0  0  0  0  0  0  0  0
   -9.8390   12.5280  -22.8890 C   0  0  1  0  0  0  0  0  0  0  0  0
   -9.4200   13.0710  -24.1220 O   0  0  0  0  0  0  0  0  0  0  0  0
  -10.5230   13.6020  -22.0710 C   0  0  2  0  0  0  0  0  0  0  0  0
   -9.8660   13.9080  -20.7870 N   0  0  0  0  0  0  0  0  0  0  0  0
  -10.1370   13.3430  -19.5670 C   0  0  0  0  0  0  0  0  0  0  0  0
   -9.3590   13.9240  -18.6330 N   0  0  0  0  0  0  0  0  0  0  0  0
   -8.6030   14.8660  -19.2400 C   0  0  0  0  0  0  0  0  0  0  0  0
   -7.6440   15.7540  -18.7670 C   0  0  0  0  0  0  0  0  0  0  0  0
   -7.3130   15.7830  -17.4820 N   0  0  0  0  0  0  0  0  0  0  0  0
   -7.0280   16.6160  -19.6390 N   0  0  0  0  0  0  0  0  0  0  0  0
   -7.3520   16.6020  -20.9750 C   0  0  0  0  0  0  0  0  0  0  0  0
   -8.2990   15.7180  -21.4330 N   0  0  0  0  0  0  0  0  0  0  0  0
   -8.9130   14.8680  -20.5870 C   0  0  0  0  0  0  0  0  0  0  0  0
  -13.1684    7.8668  -16.5434 H   0  0  0  0  0  0  0  0  0  0  0  0
  -14.0534    6.5003  -16.8955 H   0  0  0  0  0  0  0  0  0  0  0  0
  -15.1319    9.2090  -16.6264 H   0  0  0  0  0  0  0  0  0  0  0  0
  -15.5145    9.0147  -19.0478 H   0  0  0  0  0  0  0  0  0  0  0  0
  -14.7384    7.4489  -19.0443 H   0  0  0  0  0  0  0  0  0  0  0  0
  -12.6684    8.3166  -18.6103 H   0  0  0  0  0  0  0  0  0  0  0  0
  -13.4379    9.8538  -17.9745 H   0  0  0  0  0  0  0  0  0  0  0  0
  -17.5065    9.2612  -16.9391 H   0  0  0  0  0  0  0  0  0  0  0  0
  -10.8244   10.2317  -21.0170 H   0  0  0  0  0  0  0  0  0  0  0  0
  -11.3504   11.6027  -19.9995 H   0  0  0  0  0  0  0  0  0  0  0  0
  -12.9267   11.4473  -22.2760 H   0  0  0  0  0  0  0  0  0  0  0  0
  -10.5477   10.5188  -23.1743 H   0  0  0  0  0  0  0  0  0  0  0  0
  -11.9525   12.7794  -24.2248 H   0  0  0  0  0  0  0  0  0  0  0  0
   -8.9771   12.1128  -22.4097 H   0  0  0  0  0  0  0  0  0  0  0  0
  -10.1825   13.4563  -24.5814 H   0  0  0  0  0  0  0  0  0  0  0  0
  -10.4980   14.4984  -22.6547 H   0  0  0  0  0  0  0  0  0  0  0  0
  -10.8254   12.5941  -19.3927 H   0  0  0  0  0  0  0  0  0  0  0  0
   -7.7486   15.1690  -16.8475 H   0  0  0  0  0  0  0  0  0  0  0  0
   -6.6319   16.4185  -17.1633 H   0  0  0  0  0  0  0  0  0  0  0  0
   -6.8873   17.2508  -21.6293 H   0  0  0  0  0  0  0  0  0  0  0  0
  1  2  1  0  0  0  0
  1 27  1  0  0  0  0
  1 28  1  0  0  0  0
  2  3  1  0  0  0  0
  2  6  1  0  0  0  0
  2 29  1  1  0  0  0
  3  4  1  0  0  0  0
  3 30  1  0  0  0  0
  3 31  1  0  0  0  0
  4  5  1  0  0  0  0
  4 32  1  0  0  0  0
  4 33  1  0  0  0  0
  5  9  1  0  0  0  0
  6  7  2  0  0  0  0
  6  8  1  0  0  0  0
  8 34  1  0  0  0  0
  9 10  1  0  0  0  0
  9 35  1  0  0  0  0
  9 36  1  0  0  0  0
 10 11  1  0  0  0  0
 10 12  1  0  0  0  0
 10 37  1  6  0  0  0
 11 16  1  0  0  0  0
 12 13  1  0  0  0  0
 12 14  1  0  0  0  0
 12 38  1  6  0  0  0
 13 39  1  0  0  0  0
 14 15  1  0  0  0  0
 14 16  1  0  0  0  0
 14 40  1  1  0  0  0
 15 41  1  0  0  0  0
 16 17  1  0  0  0  0
 16 42  1  6  0  0  0
 17 18  1  0  0  0  0
 17 26  1  0  0  0  0
 18 19  2  0  0  0  0
 18 43  1  0  0  0  0
 19 20  1  0  0  0  0
 20 21  1  0  0  0  0
 20 26  2  0  0  0  0
 21 22  1  0  0  0  0
 21 23  2  0  0  0  0
 22 44  1  0  0  0  0
 22 45  1  0  0  0  0
 23 24  1  0  0  0  0
 24 25  2  0  0  0  0
 24 46  1  0  0  0  0
 25 26  1  0  0  0  0
A    1
N
A    2
CA
A    3
CB
A    4
CG
A    5
SD
A    6
C
A    7
O
A    8
OXT
A    9
C5'
A   10
C4'
A   11
O4'
A   12
C3'
A   13
O3'
A   14
C2'
A   15
O2'
A   16
C1'
A   17
N9
A   18
C8
A   19
N7
A   20
C5
A   21
C6
A   22
N6
A   23
N1
A   24
C2
A   25
N3
A   26
C4
M  END
>  <InstanceId>
3E5E_SAH_A_220

>  <ChemCompId>
SAH

>  <PdbId>
3E5E

>  <ChainId>
A

>  <ResidueNumber>
220

>  <InsertionCode>


>  <Model>
1

>  <AltIds>


>  <MissingHeavyAtoms>
0

>  <ObservedFormula>
C14 N6 O5 S

>  <Name>
S-ADENOSYL-L-HOMOCYSTEINE

>  <SystematicName>
(2S)-2-amino-4-[[(2S,3S,4R,5R)-5-(6-aminopurin-9-yl)-3,4-dihydroxy-oxolan-2-yl]methylsulfanyl]butanoic acid

>  <Synonyms>


>  <Type>
L-PEPTIDE LINKING

>  <Formula>
C14 H20 N6 O5 S

>  <MolecularWeight>
384.411

>  <ModifiedDate>
2011-06-04

>  <Parent>
CYS

>  <OneLetterCode>
C

>  <SubcomponentList>


>  <AmbiguousFlag>
N

>  <InChI>
InChI=1S/C14H20N6O5S/c15-6(14(23)24)1-2-26-3-7-9(21)10(22)13(25-7)20-5-19-8-11(16)17-4-18-12(8)20/h4-7,9-10,13,21-22H,1-3,15H2,(H,23,24)(H2,16,17,18)/t6-,7+,9+,10+,13+/m0/s1

>  <InChIKey>
ZJUKTBDSGOFHSH-WFMPWKQPSA-N

>  <SMILES>
c1nc(c2c(n1)n(cn2)[C@H]3[C@@H]([C@@H]([C@H](O3)CSCC[C@@H](C(=O)O)N)O)O)N

$$$$
