3E5E_SAH_A_220
 OpenBabel10091713573D
Coordinates from PDB:3E5E:A:220 Model:1 without hydrogens
 46 48  0  0  1  0  0  0  0  0999 V2000
  -14.0790    7.4170  -16.4490 N   0  0  0  0  0  0  0  0  0  0  0  0
  -15.1040    8.2470  -17.0940 C   0  0  1  0  0  0  0  0  0  0  0  0
  -14.7670    8.4110  -18.5770 C   0  0  0  0  0  0  0  0  0  0  0  0
  -13.4040    9.0860  -18.7190 C   0  0  0  0  0  0  0  0  0  0  0  0
  -13.0070    9.9420  -20.1310 S   0  0  0  0  0  0  0  0  0  0  0  0
  -16.4480    7.5820  -16.9540 C   0  0  0  0  0  0  0  0  0  0  0  0
  -16.5240    6.3770  -16.8970 O   0  0  0  0  0  0  0  0  0  0  0  0
  -17.5640    8.3270  -16.8950 O   0  0  0  0  0  0  0  0  0  0  0  0
  -11.6150   10.9090  -20.7700 C   0  0  0  0  0  0  0  0  0  0  0  0
  -11.9330   11.7460  -22.0150 C   0  0  1  0  0  0  0  0  0  0  0  0
  -11.8260   13.1370  -21.7730 O   0  0  0  0  0  0  0  0  0  0  0  0
  -10.9350   11.5150  -23.1250 C   0  0  1  0  0  0  0  0  0  0  0  0
  -11.6170   11.8730  -24.3070 O   0  0  0  0  0  0  0  0  0  0  0  0
   -9.8390   12.5280  -22.8890 C   0  0  1  0  0  0  0  0  0  0  0  0
   -9.4200   13.0710  -24.1220 O   0  0  0  0  0  0  0  0  0  0  0  0
  -10.5230   13.6020  -22.0710 C   0  0  2  0  0  0  0  0  0  0  0  0
   -9.8660   13.9080  -20.7870 N   0  0  0  0  0  0  0  0  0  0  0  0
  -10.1370   13.3430  -19.5670 C   0  0  0  0  0  0  0  0  0  0  0  0
   -9.3590   13.9240  -18.6330 N   0  0  0  0  0  0  0  0  0  0  0  0
   -8.6030   14.8660  -19.2400 C   0  0  0  0  0  0  0  0  0  0  0  0
   -7.6440   15.7540  -18.7670 C   0  0  0  0  0  0  0  0  0  0  0  0
   -7.3130   15.7830  -17.4820 N   0  0  0  0  0  0  0  0  0  0  0  0
   -7.0280   16.6160  -19.6390 N   0  0  0  0  0  0  0  0  0  0  0  0
   -7.3520   16.6020  -20.9750 C   0  0  0  0  0  0  0  0  0  0  0  0
   -8.2990   15.7180  -21.4330 N   0  0  0  0  0  0  0  0  0  0  0  0
   -8.9130   14.8680  -20.5870 C   0  0  0  0  0  0  0  0  0  0  0  0
  -13.1684    7.8668  -16.5434 H   0  0  0  0  0  0  0  0  0  0  0  0
  -14.0534    6.5003  -16.8955 H   0  0  0  0  0  0  0  0  0  0  0  0
  -15.1319    9.2090  -16.6264 H   0  0  0  0  0  0  0  0  0  0  0  0
  -15.5145    9.0147  -19.0478 H   0  0  0  0  0  0  0  0  0  0  0  0
  -14.7384    7.4489  -19.0443 H   0  0  0  0  0  0  0  0  0  0  0  0
  -12.6684    8.3166  -18.6103 H   0  0  0  0  0  0  0  0  0  0  0  0
  -13.4379    9.8538  -17.9745 H   0  0  0  0  0  0  0  0  0  0  0  0
  -17.5065    9.2612  -16.9391 H   0  0  0  0  0  0  0  0  0  0  0  0
  -10.8244   10.2317  -21.0170 H   0  0  0  0  0  0  0  0  0  0  0  0
  -11.3504   11.6027  -19.9995 H   0  0  0  0  0  0  0  0  0  0  0  0
  -12.9267   11.4473  -22.2760 H   0  0  0  0  0  0  0  0  0  0  0  0
  -10.5477   10.5188  -23.1743 H   0  0  0  0  0  0  0  0  0  0  0  0
  -11.9525   12.7794  -24.2248 H   0  0  0  0  0  0  0  0  0  0  0  0
   -8.9771   12.1128  -22.4097 H   0  0  0  0  0  0  0  0  0  0  0  0
  -10.1825   13.4563  -24.5814 H   0  0  0  0  0  0  0  0  0  0  0  0
  -10.4980   14.4984  -22.6547 H   0  0  0  0  0  0  0  0  0  0  0  0
  -10.8254   12.5941  -19.3927 H   0  0  0  0  0  0  0  0  0  0  0  0
   -7.7486   15.1690  -16.8475 H   0  0  0  0  0  0  0  0  0  0  0  0
   -6.6319   16.4185  -17.1633 H   0  0  0  0  0  0  0  0  0  0  0  0
   -6.8873   17.2508  -21.6293 H   0  0  0  0  0  0  0  0  0  0  0  0
  1  2  1  0  0  0  0
  1 27  1  0  0  0  0
  1 28  1  0  0  0  0
  2  3  1  0  0  0  0
  2  6  1  0  0  0  0
  2 29  1  1  0  0  0
  3  4  1  0  0  0  0
  3 30  1  0  0  0  0
  3 31  1  0  0  0  0
  4  5  1  0  0  0  0
  4 32  1  0  0  0  0
  4 33  1  0  0  0  0
  5  9  1  0  0  0  0
  6  7  2  0  0  0  0
  6  8  1  0  0  0  0
  8 34  1  0  0  0  0
  9 10  1  0  0  0  0
  9 35  1  0  0  0  0
  9 36  1  0  0  0  0
 10 11  1  0  0  0  0
 10 12  1  0  0  0  0
 10 37  1  6  0  0  0
 11 16  1  0  0  0  0
 12 13  1  0  0  0  0
 12 14  1  0  0  0  0
 12 38  1  6  0  0  0
 13 39  1  0  0  0  0
 14 15  1  0  0  0  0
 14 16  1  0  0  0  0
 14 40  1  1  0  0  0
 15 41  1  0  0  0  0
 16 17  1  0  0  0  0
 16 42  1  6  0  0  0
 17 18  1  0  0  0  0
 17 26  1  0  0  0  0
 18 19  2  0  0  0  0
 18 43  1  0  0  0  0
 19 20  1  0  0  0  0
 20 21  2  0  0  0  0
 20 26  1  0  0  0  0
 21 22  1  0  0  0  0
 21 23  1  0  0  0  0
 22 44  1  0  0  0  0
 22 45  1  0  0  0  0
 23 24  2  0  0  0  0
 24 25  1  0  0  0  0
 24 46  1  0  0  0  0
 25 26  2  0  0  0  0
M  END
$$$$
