@<TRIPOS>MOLECULE
*****
 27 26 0 0 0
SMALL
GASTEIGER

@<TRIPOS>ATOM
      1 N           3.1681   -1.3697   -0.4577 N.3     1  ARG1       -0.3184
      2 CA          2.5829   -0.1173    0.0583 C.3     1  ARG1        0.1033
      3 HA          2.8686    0.0132    1.1087 H       1  ARG1        0.0574
      4 C           1.0441   -0.1693   -0.0035 C.2     1  ARG1        0.3217
      5 O           0.3468    0.6241   -0.6169 O.2     1  ARG1       -0.2493
      6 OXT         0.5200   -1.2010    0.6983 O.3     1  ARG1       -0.4795
      7 CB          3.1060    1.0816   -0.7524 C.3     1  ARG1       -0.0245
      8 CG          4.6305    1.2168   -0.7289 C.3     1  ARG1       -0.0203
      9 CD          5.0918    2.4361   -1.5237 C.3     1  ARG1        0.0646
     10 NE          6.5598    2.5352   -1.5148 N.pl3   1  ARG1       -0.2787
     11 CZ          7.2597    3.4989   -2.1313 C.cat   1  ARG1        0.3410
     12 NH1         6.6643    4.4739   -2.8216 N.pl3   1  ARG1       -0.2919
     13 HH11        7.1941    5.2002   -3.2844 H       1  ARG1        0.2545
     14 HH12        5.6572    4.5177   -2.9069 H       1  ARG1        0.2545
     15 NH2         8.5942    3.4909   -2.0566 N.pl3   1  ARG1       -0.2919
     16 H1          2.8161   -1.5380   -1.4046 H       1  ARG1        0.1190
     17 H2          2.8836   -2.1822    0.0850 H       1  ARG1        0.1190
     18 HXT         1.1811   -1.7264    1.1846 H       1  ARG1        0.2951
     19 HB1         2.6615    2.0024   -0.3513 H       1  ARG1        0.0286
     20 HB2         2.7646    1.0067   -1.7937 H       1  ARG1        0.0286
     21 HG1         5.1023    0.3232   -1.1538 H       1  ARG1        0.0296
     22 HG2         4.9842    1.2987    0.3059 H       1  ARG1        0.0296
     23 HD1         4.6835    3.3482   -1.0754 H       1  ARG1        0.0655
     24 HD2         4.7612    2.3488   -2.5643 H       1  ARG1        0.0655
     25 HE          7.0833    1.8240   -1.0192 H       1  ARG1        0.2578
     26 HH21        9.0959    2.7749   -1.5471 H       1  ARG1        0.2545
     27 HH22        9.1517    4.2036   -2.5098 H       1  ARG1        0.2545
@<TRIPOS>BOND
     1     1    16    1
     2     1    17    1
     3     2     4    1
     4     2     7    1
     5     2     3    1
     6     2     1    1
     7     4     5    2
     8     4     6    1
     9     6    18    1
    10     7     8    1
    11     7    19    1
    12     7    20    1
    13     8     9    1
    14     8    21    1
    15     8    22    1
    16     9    10    1
    17     9    23    1
    18     9    24    1
    19    10    11    1
    20    10    25    1
    21    11    12    2
    22    11    15    1
    23    12    13    1
    24    12    14    1
    25    15    26    1
    26    15    27    1
