REMARK  7 active torsions:
REMARK  status: ('A' for Active; 'I' for Inactive)
REMARK    1  A    between atoms: CA_2  and  N_1 
REMARK    2  A    between atoms: CA_2  and  C_3 
REMARK    3  A    between atoms: CA_2  and  CB_6 
REMARK    4  A    between atoms: C_3  and  OXT_5 
REMARK    5  A    between atoms: CB_6  and  CG_7 
REMARK    6  A    between atoms: CG_7  and  CD_8 
REMARK    7  A    between atoms: CD_8  and  NE_9 
REMARK       I    between atoms: NE_9  and  CZ_10 
REMARK       I    between atoms: CZ_10  and  NH1_11 
ROOT
ATOM      1  CG  ARG d   1       4.630   1.217  -0.729  0.00  0.00     0.023 C 
ENDROOT
BRANCH   1   2
ATOM      2  CB  ARG d   1       3.106   1.082  -0.752  0.00  0.00     0.048 C 
BRANCH   2   3
ATOM      3  CA  ARG d   1       2.583  -0.117   0.058  0.00  0.00     0.314 C 
BRANCH   3   4
ATOM      4  C   ARG d   1       1.044  -0.169  -0.004  0.00  0.00     0.173 C 
ATOM      5  O   ARG d   1       0.347   0.624  -0.617  0.00  0.00    -0.648 OA
BRANCH   4   6
ATOM      6  OXT ARG d   1       0.520  -1.201   0.698  0.00  0.00    -0.775 OA
ATOM      7  HXT ARG d   1       1.181  -1.726   1.185  0.00  0.00     0.167 HD
ENDBRANCH   4   6
ENDBRANCH   3   4
BRANCH   3   8
ATOM      8  N   ARG d   1       3.168  -1.370  -0.458  0.00  0.00     0.093 N 
ATOM      9  H1  ARG d   1       2.816  -1.538  -1.405  0.00  0.00     0.314 HD
ATOM     10  H2  ARG d   1       2.884  -2.182   0.085  0.00  0.00     0.314 HD
ENDBRANCH   3   8
ENDBRANCH   2   3
ENDBRANCH   1   2
BRANCH   1  11
ATOM     11  CD  ARG d   1       5.092   2.436  -1.524  0.00  0.00     0.138 C 
BRANCH  11  12
ATOM     12  NE  ARG d   1       6.560   2.535  -1.515  0.00  0.00    -0.227 N 
ATOM     13  CZ  ARG d   1       7.260   3.499  -2.131  0.00  0.00     0.665 C 
ATOM     14  NH1 ARG d   1       6.664   4.474  -2.822  0.00  0.00    -0.235 N 
ATOM     15  NH2 ARG d   1       8.594   3.491  -2.057  0.00  0.00    -0.235 N 
ATOM     16 1HH1 ARG d   1       7.194   5.200  -3.284  0.00  0.00     0.174 HD
ATOM     17 2HH1 ARG d   1       5.657   4.518  -2.907  0.00  0.00     0.174 HD
ATOM     18 1HH2 ARG d   1       9.096   2.775  -1.547  0.00  0.00     0.174 HD
ATOM     19 2HH2 ARG d   1       9.152   4.204  -2.510  0.00  0.00     0.174 HD
ATOM     20  HE  ARG d   1       7.083   1.824  -1.019  0.00  0.00     0.177 HD
ENDBRANCH  11  12
ENDBRANCH   1  11
TORSDOF 7
