
 OpenBabel03221816513D

 27 26  0  0  1  0  0  0  0  0999 V2000
    3.1681   -1.3697   -0.4577 N   0  0  0  0  0  0  0  0  0  0  0  0
    2.5829   -0.1173    0.0583 C   0  0  2  0  0  0  0  0  0  0  0  0
    2.8686    0.0132    1.1087 H   0  0  0  0  0  0  0  0  0  0  0  0
    1.0441   -0.1693   -0.0035 C   0  0  0  0  0  0  0  0  0  0  0  0
    0.3468    0.6241   -0.6169 O   0  0  0  0  0  0  0  0  0  0  0  0
    0.5200   -1.2010    0.6983 O   0  0  0  0  0  0  0  0  0  0  0  0
    3.1060    1.0816   -0.7524 C   0  0  0  0  0  0  0  0  0  0  0  0
    4.6305    1.2168   -0.7289 C   0  0  0  0  0  0  0  0  0  0  0  0
    5.0918    2.4361   -1.5237 C   0  0  0  0  0  0  0  0  0  0  0  0
    6.5598    2.5352   -1.5148 N   0  0  0  0  0  0  0  0  0  0  0  0
    7.2597    3.4989   -2.1313 C   0  0  0  0  0  0  0  0  0  0  0  0
    6.6643    4.4739   -2.8216 N   0  3  0  0  0  0  0  0  0  0  0  0
    7.1941    5.2002   -3.2844 H   0  0  0  0  0  0  0  0  0  0  0  0
    5.6572    4.5177   -2.9069 H   0  0  0  0  0  0  0  0  0  0  0  0
    8.5942    3.4909   -2.0566 N   0  0  0  0  0  0  0  0  0  0  0  0
    2.8161   -1.5380   -1.4046 H   0  0  0  0  0  0  0  0  0  0  0  0
    2.8836   -2.1822    0.0850 H   0  0  0  0  0  0  0  0  0  0  0  0
    1.1811   -1.7264    1.1846 H   0  0  0  0  0  0  0  0  0  0  0  0
    2.6615    2.0024   -0.3513 H   0  0  0  0  0  0  0  0  0  0  0  0
    2.7646    1.0067   -1.7937 H   0  0  0  0  0  0  0  0  0  0  0  0
    5.1023    0.3232   -1.1538 H   0  0  0  0  0  0  0  0  0  0  0  0
    4.9842    1.2987    0.3059 H   0  0  0  0  0  0  0  0  0  0  0  0
    4.6835    3.3482   -1.0754 H   0  0  0  0  0  0  0  0  0  0  0  0
    4.7612    2.3488   -2.5643 H   0  0  0  0  0  0  0  0  0  0  0  0
    7.0833    1.8240   -1.0192 H   0  0  0  0  0  0  0  0  0  0  0  0
    9.0959    2.7749   -1.5471 H   0  0  0  0  0  0  0  0  0  0  0  0
    9.1517    4.2036   -2.5098 H   0  0  0  0  0  0  0  0  0  0  0  0
  1 16  1  0  0  0  0
  1 17  1  0  0  0  0
  2  4  1  0  0  0  0
  2  7  1  0  0  0  0
  2  3  1  1  0  0  0
  2  1  1  0  0  0  0
  4  5  2  0  0  0  0
  4  6  1  0  0  0  0
  6 18  1  0  0  0  0
  7  8  1  0  0  0  0
  7 19  1  0  0  0  0
  7 20  1  0  0  0  0
  8  9  1  0  0  0  0
  8 21  1  0  0  0  0
  8 22  1  0  0  0  0
  9 10  1  0  0  0  0
  9 23  1  0  0  0  0
  9 24  1  0  0  0  0
 10 11  1  0  0  0  0
 10 25  1  0  0  0  0
 11 12  2  0  0  0  0
 11 15  1  0  0  0  0
 12 13  1  0  0  0  0
 12 14  1  0  0  0  0
 15 26  1  0  0  0  0
 15 27  1  0  0  0  0
M  CHG  1  12   1
M  END
$$$$
