REMARK  0 active torsions:
REMARK  status: ('A' for Active; 'I' for Inactive)
ROOT
ATOM      1  C   UNL d   1       1.007   0.006  -0.096  0.00  0.00     0.164 C 
ATOM      2  N   UNL d   1       2.456   0.010  -0.090  0.00  0.00    -0.269 N 
ATOM      3  C   UNL d   1       3.125   1.253  -0.086  0.00  0.00     0.332 A 
ATOM      4  O   UNL d   1       2.502   2.318  -0.088  0.00  0.00    -0.246 OA
ATOM      5  N   UNL d   1       4.524   1.223  -0.079  0.00  0.00    -0.286 N 
ATOM      6  C   UNL d   1       5.289   2.456  -0.074  0.00  0.00     0.163 C 
ATOM      7  C   UNL d   1       5.171   0.012  -0.076  0.00  0.00     0.167 A 
ATOM      8  C   UNL d   1       4.486  -1.162  -0.081  0.00  0.00     0.149 A 
ATOM      9  C   UNL d   1       3.073  -1.245  -0.088  0.00  0.00     0.281 A 
ATOM     10  O   UNL d   1       2.474  -2.317  -0.093  0.00  0.00    -0.265 OA
ATOM     11  N   UNL d   1       5.436  -2.140  -0.076  0.00  0.00    -0.343 N 
ATOM     12  H   UNL d   1       5.269  -3.138  -0.077  0.00  0.00     0.167 HD
ATOM     13  C   UNL d   1       6.652  -1.505  -0.068  0.00  0.00     0.210 A 
ATOM     14  N   UNL d   1       6.518  -0.193  -0.068  0.00  0.00    -0.224 NA
ENDROOT
TORSDOF 0
