1O15_TEP_A_34
 OpenBabel03221816533D

 21 22  0  0  0  0  0  0  0  0999 V2000
    1.0067    0.0059   -0.0957 C   0  0  0  0  0  0  0  0  0  0  0  0
    2.4564    0.0103   -0.0898 N   0  0  0  0  0  0  0  0  0  0  0  0
    3.1251    1.2526   -0.0859 C   0  0  0  0  0  0  0  0  0  0  0  0
    2.5024    2.3181   -0.0884 O   0  0  0  0  0  0  0  0  0  0  0  0
    4.5236    1.2230   -0.0790 N   0  0  0  0  0  0  0  0  0  0  0  0
    5.2893    2.4562   -0.0739 C   0  0  0  0  0  0  0  0  0  0  0  0
    5.1713    0.0116   -0.0760 C   0  0  0  0  0  0  0  0  0  0  0  0
    4.4861   -1.1616   -0.0806 C   0  0  0  0  0  0  0  0  0  0  0  0
    3.0728   -1.2454   -0.0883 C   0  0  0  0  0  0  0  0  0  0  0  0
    2.4743   -2.3167   -0.0927 O   0  0  0  0  0  0  0  0  0  0  0  0
    5.4361   -2.1397   -0.0758 N   0  0  0  0  0  0  0  0  0  0  0  0
    5.2694   -3.1381   -0.0773 H   0  0  0  0  0  0  0  0  0  0  0  0
    6.6516   -1.5047   -0.0681 C   0  0  0  0  0  0  0  0  0  0  0  0
    6.5178   -0.1929   -0.0683 N   0  0  0  0  0  0  0  0  0  0  0  0
    0.5776    1.0104   -0.0967 H   0  0  0  0  0  0  0  0  0  0  0  0
    0.6508   -0.5311    0.7899 H   0  0  0  0  0  0  0  0  0  0  0  0
    0.6577   -0.5301   -0.9846 H   0  0  0  0  0  0  0  0  0  0  0  0
    4.6434    3.3380   -0.0795 H   0  0  0  0  0  0  0  0  0  0  0  0
    5.9266    2.4847   -0.9634 H   0  0  0  0  0  0  0  0  0  0  0  0
    5.9128    2.4857    0.8252 H   0  0  0  0  0  0  0  0  0  0  0  0
    7.5883   -2.0471   -0.0625 H   0  0  0  0  0  0  0  0  0  0  0  0
  1  2  1  0  0  0  0
  1 15  1  0  0  0  0
  1 16  1  0  0  0  0
  1 17  1  0  0  0  0
  2  3  1  0  0  0  0
  2  9  1  0  0  0  0
  3  4  2  0  0  0  0
  3  5  1  0  0  0  0
  5  6  1  0  0  0  0
  5  7  1  0  0  0  0
  6 18  1  0  0  0  0
  6 19  1  0  0  0  0
  6 20  1  0  0  0  0
  7  8  2  0  0  0  0
  7 14  1  0  0  0  0
  8  9  1  0  0  0  0
  8 11  1  0  0  0  0
  9 10  2  0  0  0  0
 11 12  1  0  0  0  0
 11 13  1  0  0  0  0
 13 14  2  0  0  0  0
 13 21  1  0  0  0  0
M  END
$$$$
