@<TRIPOS>MOLECULE
1O15_TEP_A_34
 21 22 0 0 0
SMALL
GASTEIGER

@<TRIPOS>ATOM
      1 C           1.0067    0.0059   -0.0957 C.3     1  UNL1        0.0196
      2 N           2.4564    0.0103   -0.0898 N.ar    1  UNL1       -0.2622
      3 C           3.1251    1.2526   -0.0859 C.ar    1  UNL1        0.3331
      4 O           2.5024    2.3181   -0.0884 O.2     1  UNL1       -0.2462
      5 N           4.5236    1.2230   -0.0790 N.ar    1  UNL1       -0.2796
      6 C           5.2893    2.4562   -0.0739 C.3     1  UNL1        0.0181
      7 C           5.1713    0.0116   -0.0760 C.ar    1  UNL1        0.1676
      8 C           4.4861   -1.1616   -0.0806 C.ar    1  UNL1        0.1488
      9 C           3.0728   -1.2454   -0.0883 C.ar    1  UNL1        0.2820
     10 O           2.4743   -2.3167   -0.0927 O.2     1  UNL1       -0.2652
     11 N           5.4361   -2.1397   -0.0758 N.ar    1  UNL1       -0.3389
     12 H           5.2694   -3.1381   -0.0773 H       1  UNL1        0.1670
     13 C           6.6516   -1.5047   -0.0681 C.ar    1  UNL1        0.0963
     14 N           6.5178   -0.1929   -0.0683 N.ar    1  UNL1       -0.2179
     15 H           0.5776    1.0104   -0.0967 H       1  UNL1        0.0458
     16 H           0.6508   -0.5311    0.7899 H       1  UNL1        0.0458
     17 H           0.6577   -0.5301   -0.9846 H       1  UNL1        0.0458
     18 H           4.6434    3.3380   -0.0795 H       1  UNL1        0.0458
     19 H           5.9266    2.4847   -0.9634 H       1  UNL1        0.0458
     20 H           5.9128    2.4857    0.8252 H       1  UNL1        0.0458
     21 H           7.5883   -2.0471   -0.0625 H       1  UNL1        0.1027
@<TRIPOS>BOND
     1     1     2    1
     2     1    15    1
     3     1    16    1
     4     1    17    1
     5     2     3   ar
     6     2     9   ar
     7     3     4    2
     8     3     5   ar
     9     5     6    1
    10     5     7   ar
    11     6    18    1
    12     6    19    1
    13     6    20    1
    14     7     8   ar
    15     7    14   ar
    16     8     9   ar
    17     8    11   ar
    18     9    10    2
    19    11    12    1
    20    11    13   ar
    21    13    14   ar
    22    13    21    1
