@<TRIPOS>MOLECULE
4LVY_LYA_A_101
 37 39 0 0 0
SMALL
GASTEIGER

@<TRIPOS>ATOM
      1 C          -1.3724    0.0072   -0.0178 C.ar    1  UNL1       -0.0470
      2 C          -0.7657    0.0074    1.2430 C.ar    1  UNL1       -0.0578
      3 C           0.6165    0.1851    1.3618 C.ar    1  UNL1       -0.0494
      4 C           1.4164    0.3683    0.2246 C.ar    1  UNL1        0.0365
      5 C           0.8128    0.3424   -1.0380 C.ar    1  UNL1       -0.0494
      6 C          -0.5714    0.1687   -1.1554 C.ar    1  UNL1       -0.0578
      7 C           2.8757    0.6066    0.4324 C.2     1  UNL1        0.2415
      8 O           3.3707    0.6175    1.5542 O.2     1  UNL1       -0.2704
      9 N           3.6671    0.8370   -0.6584 N.am    1  UNL1       -0.3253
     10 C          -2.8720   -0.1150   -0.1569 C.3     1  UNL1       -0.0236
     11 C          -3.5560    1.2570   -0.1484 C.3     1  UNL1       -0.0215
     12 C          -5.0374    1.1632   -0.3579 C.ar    1  UNL1       -0.0153
     13 C          -6.0098    1.0660    0.6305 C.ar    1  UNL1        0.0074
     14 N          -7.2485    1.0004    0.0334 N.ar    1  UNL1       -0.3468
     15 H          -8.1319    0.9252    0.5187 H       1  UNL1        0.1667
     16 C          -7.0666    1.0623   -1.3105 C.ar    1  UNL1        0.1239
     17 C          -5.7323    1.1567   -1.6050 C.ar    1  UNL1        0.0862
     18 C          -5.3112    1.2166   -3.0066 C.ar    1  UNL1        0.2840
     19 O          -4.1274    1.3136   -3.3169 O.2     1  UNL1       -0.2650
     20 N          -6.3329    1.1361   -3.9524 N.ar    1  UNL1       -0.1769
     21 C          -7.5688    1.0440   -3.5606 C.ar    1  UNL1        0.1951
     22 N          -8.0073    1.0236   -2.2620 N.ar    1  UNL1       -0.3136
     23 H          -8.9798    0.8064   -2.0888 H       1  UNL1        0.1699
     24 N          -8.5725    0.9368   -4.4689 N.pl3   1  UNL1       -0.3289
     25 H          -1.3623   -0.1190    2.1437 H       1  UNL1        0.0620
     26 H           1.0684    0.1926    2.3525 H       1  UNL1        0.0625
     27 H           1.3846    0.4638   -1.9504 H       1  UNL1        0.0625
     28 H          -1.0269    0.1730   -2.1453 H       1  UNL1        0.0620
     29 H           3.3431    0.9003   -1.6095 H       1  UNL1        0.1453
     30 H           4.6406    1.0427   -0.4754 H       1  UNL1        0.1453
     31 H          -3.2650   -0.7402    0.6557 H       1  UNL1        0.0316
     32 H          -3.1063   -0.6556   -1.0833 H       1  UNL1        0.0316
     33 H          -3.1202    1.9042   -0.9198 H       1  UNL1        0.0317
     34 H          -3.3605    1.7611    0.8075 H       1  UNL1        0.0317
     35 H          -5.9226    1.0377    1.7092 H       1  UNL1        0.0810
     36 H          -8.2262    1.1138   -5.4085 H       1  UNL1        0.1451
     37 H          -9.3950    1.4919   -4.2739 H       1  UNL1        0.1451
@<TRIPOS>BOND
     1     1     2   ar
     2     1     6   ar
     3     1    10    1
     4     2     3   ar
     5     2    25    1
     6     3     4   ar
     7     3    26    1
     8     4     5   ar
     9     4     7    1
    10     5     6   ar
    11     5    27    1
    12     6    28    1
    13     7     8    2
    14     7     9   am
    15     9    29    1
    16     9    30    1
    17    10    11    1
    18    10    31    1
    19    10    32    1
    20    11    12    1
    21    11    33    1
    22    11    34    1
    23    12    13   ar
    24    12    17   ar
    25    13    14   ar
    26    13    35    1
    27    14    15    1
    28    14    16   ar
    29    16    17   ar
    30    16    22   ar
    31    17    18   ar
    32    18    19    2
    33    18    20   ar
    34    20    21   ar
    35    21    22   ar
    36    21    24    1
    37    22    23    1
    38    24    36    1
    39    24    37    1
