4LVY_LYA_A_101
 OpenBabel03221817313D

 37 39  0  0  0  0  0  0  0  0999 V2000
   -1.3724    0.0072   -0.0178 C   0  0  0  0  0  0  0  0  0  0  0  0
   -0.7657    0.0074    1.2430 C   0  0  0  0  0  0  0  0  0  0  0  0
    0.6165    0.1851    1.3618 C   0  0  0  0  0  0  0  0  0  0  0  0
    1.4164    0.3683    0.2246 C   0  0  0  0  0  0  0  0  0  0  0  0
    0.8128    0.3424   -1.0380 C   0  0  0  0  0  0  0  0  0  0  0  0
   -0.5714    0.1687   -1.1554 C   0  0  0  0  0  0  0  0  0  0  0  0
    2.8757    0.6066    0.4324 C   0  0  0  0  0  0  0  0  0  0  0  0
    3.3707    0.6175    1.5542 O   0  0  0  0  0  0  0  0  0  0  0  0
    3.6671    0.8370   -0.6584 N   0  0  0  0  0  0  0  0  0  0  0  0
   -2.8720   -0.1150   -0.1569 C   0  0  0  0  0  0  0  0  0  0  0  0
   -3.5560    1.2570   -0.1484 C   0  0  0  0  0  0  0  0  0  0  0  0
   -5.0374    1.1632   -0.3579 C   0  0  0  0  0  0  0  0  0  0  0  0
   -6.0098    1.0660    0.6305 C   0  0  0  0  0  0  0  0  0  0  0  0
   -7.2485    1.0004    0.0334 N   0  0  0  0  0  0  0  0  0  0  0  0
   -8.1319    0.9252    0.5187 H   0  0  0  0  0  0  0  0  0  0  0  0
   -7.0666    1.0623   -1.3105 C   0  0  0  0  0  0  0  0  0  0  0  0
   -5.7323    1.1567   -1.6050 C   0  0  0  0  0  0  0  0  0  0  0  0
   -5.3112    1.2166   -3.0066 C   0  0  0  0  0  0  0  0  0  0  0  0
   -4.1274    1.3136   -3.3169 O   0  0  0  0  0  0  0  0  0  0  0  0
   -6.3329    1.1361   -3.9524 N   0  0  0  0  0  0  0  0  0  0  0  0
   -7.5688    1.0440   -3.5606 C   0  0  0  0  0  0  0  0  0  0  0  0
   -8.0073    1.0236   -2.2620 N   0  0  0  0  0  0  0  0  0  0  0  0
   -8.9798    0.8064   -2.0888 H   0  0  0  0  0  0  0  0  0  0  0  0
   -8.5725    0.9368   -4.4689 N   0  0  0  0  0  0  0  0  0  0  0  0
   -1.3623   -0.1190    2.1437 H   0  0  0  0  0  0  0  0  0  0  0  0
    1.0684    0.1926    2.3525 H   0  0  0  0  0  0  0  0  0  0  0  0
    1.3846    0.4638   -1.9504 H   0  0  0  0  0  0  0  0  0  0  0  0
   -1.0269    0.1730   -2.1453 H   0  0  0  0  0  0  0  0  0  0  0  0
    3.3431    0.9003   -1.6095 H   0  0  0  0  0  0  0  0  0  0  0  0
    4.6406    1.0427   -0.4754 H   0  0  0  0  0  0  0  0  0  0  0  0
   -3.2650   -0.7402    0.6557 H   0  0  0  0  0  0  0  0  0  0  0  0
   -3.1063   -0.6556   -1.0833 H   0  0  0  0  0  0  0  0  0  0  0  0
   -3.1202    1.9042   -0.9198 H   0  0  0  0  0  0  0  0  0  0  0  0
   -3.3605    1.7611    0.8075 H   0  0  0  0  0  0  0  0  0  0  0  0
   -5.9226    1.0377    1.7092 H   0  0  0  0  0  0  0  0  0  0  0  0
   -8.2262    1.1138   -5.4085 H   0  0  0  0  0  0  0  0  0  0  0  0
   -9.3950    1.4919   -4.2739 H   0  0  0  0  0  0  0  0  0  0  0  0
  1  2  2  0  0  0  0
  1  6  1  0  0  0  0
  1 10  1  0  0  0  0
  2  3  1  0  0  0  0
  2 25  1  0  0  0  0
  3  4  2  0  0  0  0
  3 26  1  0  0  0  0
  4  5  1  0  0  0  0
  4  7  1  0  0  0  0
  5  6  2  0  0  0  0
  5 27  1  0  0  0  0
  6 28  1  0  0  0  0
  7  8  2  0  0  0  0
  7  9  1  0  0  0  0
  9 29  1  0  0  0  0
  9 30  1  0  0  0  0
 10 11  1  0  0  0  0
 10 31  1  0  0  0  0
 10 32  1  0  0  0  0
 11 12  1  0  0  0  0
 11 33  1  0  0  0  0
 11 34  1  0  0  0  0
 12 13  2  0  0  0  0
 12 17  1  0  0  0  0
 13 14  1  0  0  0  0
 13 35  1  0  0  0  0
 14 15  1  0  0  0  0
 14 16  1  0  0  0  0
 16 17  2  0  0  0  0
 16 22  1  0  0  0  0
 17 18  1  0  0  0  0
 18 19  2  0  0  0  0
 18 20  1  0  0  0  0
 20 21  2  0  0  0  0
 21 22  1  0  0  0  0
 21 24  1  0  0  0  0
 22 23  1  0  0  0  0
 24 36  1  0  0  0  0
 24 37  1  0  0  0  0
M  END
$$$$
