REMARK  5 active torsions:
REMARK  status: ('A' for Active; 'I' for Inactive)
REMARK    1  A    between atoms: C_1  and  C_10 
REMARK    2  A    between atoms: C_4  and  C_7 
REMARK       I    between atoms: C_7  and  N_9 
REMARK    3  A    between atoms: C_10  and  C_11 
REMARK    4  A    between atoms: C_11  and  C_12 
REMARK    5  A    between atoms: C_21  and  N_24 
ROOT
ATOM      1  C   UNL d   1      -5.037   1.163  -0.358  0.00  0.00    -0.023 A 
ATOM      2  C   UNL d   1      -6.010   1.066   0.630  0.00  0.00     0.098 A 
ATOM      3  N   UNL d   1      -7.248   1.000   0.033  0.00  0.00    -0.351 N 
ATOM      4  H   UNL d   1      -8.132   0.925   0.519  0.00  0.00     0.166 HD
ATOM      5  C   UNL d   1      -7.067   1.062  -1.310  0.00  0.00     0.123 A 
ATOM      6  C   UNL d   1      -5.732   1.157  -1.605  0.00  0.00     0.086 A 
ATOM      7  C   UNL d   1      -5.311   1.217  -3.007  0.00  0.00     0.284 A 
ATOM      8  O   UNL d   1      -4.127   1.314  -3.317  0.00  0.00    -0.265 OA
ATOM      9  N   UNL d   1      -6.333   1.136  -3.952  0.00  0.00    -0.180 NA
ATOM     10  C   UNL d   1      -7.569   1.044  -3.561  0.00  0.00     0.182 A 
ATOM     11  N   UNL d   1      -8.007   1.024  -2.262  0.00  0.00    -0.317 N 
ATOM     12  H   UNL d   1      -8.980   0.806  -2.089  0.00  0.00     0.170 HD
ENDROOT
BRANCH   1  13
ATOM     13  C   UNL d   1      -3.556   1.257  -0.148  0.00  0.00     0.045 C 
BRANCH  13  14
ATOM     14  C   UNL d   1      -2.872  -0.115  -0.157  0.00  0.00     0.043 C 
BRANCH  14  15
ATOM     15  C   UNL d   1      -1.372   0.007  -0.018  0.00  0.00    -0.058 A 
ATOM     16  C   UNL d   1      -0.766   0.007   1.243  0.00  0.00     0.008 A 
ATOM     17  C   UNL d   1       0.617   0.185   1.362  0.00  0.00     0.017 A 
ATOM     18  C   UNL d   1       1.416   0.368   0.225  0.00  0.00     0.031 A 
ATOM     19  C   UNL d   1       0.813   0.342  -1.038  0.00  0.00     0.017 A 
ATOM     20  C   UNL d   1      -0.571   0.169  -1.155  0.00  0.00     0.008 A 
BRANCH  18  21
ATOM     21  C   UNL d   1       2.876   0.607   0.432  0.00  0.00     0.249 C 
ATOM     22  O   UNL d   1       3.371   0.618   1.554  0.00  0.00    -0.268 OA
ATOM     23  N   UNL d   1       3.667   0.837  -0.658  0.00  0.00    -0.366 N 
ATOM     24  H   UNL d   1       3.343   0.900  -1.609  0.00  0.00     0.159 HD
ATOM     25  H   UNL d   1       4.641   1.043  -0.475  0.00  0.00     0.159 HD
ENDBRANCH  18  21
ENDBRANCH  14  15
ENDBRANCH  13  14
ENDBRANCH   1  13
BRANCH  10  26
ATOM     26  N   UNL d   1      -8.572   0.937  -4.469  0.00  0.00    -0.272 NA
ATOM     27  H   UNL d   1      -8.226   1.114  -5.409  0.00  0.00     0.127 HD
ATOM     28  H   UNL d   1      -9.395   1.492  -4.274  0.00  0.00     0.127 HD
ENDBRANCH  10  26
TORSDOF 5
