@<TRIPOS>MOLECULE
5BXK_S81_B_301
 47 48 0 0 0
SMALL
GASTEIGER

@<TRIPOS>ATOM
      1 C          -1.5748   -1.0850    0.1656 C.3     1  UNL1        0.1776
      2 H          -1.3038   -0.4598    1.0262 H       1  UNL1        0.0927
      3 C          -3.0959   -1.4035    0.3074 C.3     1  UNL1        0.0856
      4 H          -3.3438   -1.3859    1.3774 H       1  UNL1        0.0535
      5 C          -3.9533   -0.3475   -0.4088 C.3     1  UNL1        0.1084
      6 H          -5.0166   -0.6162   -0.3688 H       1  UNL1        0.0640
      7 C          -3.5130   -0.1181   -1.8561 C.3     1  UNL1        0.1555
      8 H          -3.6398    0.9350   -2.1236 H       1  UNL1        0.0705
      9 C          -2.0791   -0.5775   -2.1255 C.3     1  UNL1        0.1073
     10 H          -2.0578   -1.6596   -2.3094 H       1  UNL1        0.0639
     11 C          -1.4973    0.1532   -3.3421 C.3     1  UNL1        0.0225
     12 N          -0.4066   -0.5938   -3.9639 N.3     1  UNL1       -0.3276
     13 O          -1.2791   -0.2690   -0.9820 O.3     1  UNL1       -0.3422
     14 F          -4.3387   -0.8365   -2.6683 F       1  UNL1       -0.2400
     15 O          -3.8117    0.8924    0.2988 O.3     1  UNL1       -0.3871
     16 N          -3.4518   -2.7533   -0.1525 N.3     1  UNL1       -0.3211
     17 O          -0.7867   -2.2817    0.1574 O.3     1  UNL1       -0.3422
     18 C           0.2051   -2.4029    1.1986 C.3     1  UNL1        0.1051
     19 H           0.4248   -1.4271    1.6483 H       1  UNL1        0.0639
     20 C          -0.3683   -3.3563    2.2542 C.3     1  UNL1        0.1101
     21 H          -0.9029   -4.1789    1.7595 H       1  UNL1        0.0646
     22 C           0.6808   -3.9248    3.2062 C.3     1  UNL1        0.0986
     23 H           1.0730   -3.1364    3.8618 H       1  UNL1        0.0635
     24 C           1.8153   -4.6008    2.4340 C.3     1  UNL1        0.0351
     25 H           1.4144   -5.4260    1.8349 H       1  UNL1        0.0485
     26 C           2.4744   -3.5715    1.5121 C.3     1  UNL1       -0.0175
     27 C           1.4711   -2.9591    0.5190 C.3     1  UNL1        0.0355
     28 H           1.1890   -3.7216   -0.2176 H       1  UNL1        0.0485
     29 N           2.1530   -1.8678   -0.1827 N.3     1  UNL1       -0.3250
     30 N           2.7959   -5.1541    3.3705 N.3     1  UNL1       -0.3250
     31 O           0.0400   -4.8751    4.0648 O.3     1  UNL1       -0.3876
     32 O          -1.3190   -2.6308    3.0357 O.3     1  UNL1       -0.3866
     33 H          -2.2708    0.3161   -4.1006 H       1  UNL1        0.0448
     34 H          -1.1220    1.1428   -3.0539 H       1  UNL1        0.0448
     35 H           0.2284   -0.9441   -3.2483 H       1  UNL1        0.1183
     36 H          -0.7836   -1.4105   -4.4425 H       1  UNL1        0.1183
     37 H          -4.3960    0.8459    1.0751 H       1  UNL1        0.2100
     38 H          -3.7812   -2.7278   -1.1147 H       1  UNL1        0.1187
     39 H          -2.6263   -3.3530   -0.1512 H       1  UNL1        0.1187
     40 H           2.9399   -2.7767    2.1103 H       1  UNL1        0.0297
     41 H           3.2975   -4.0519    0.9620 H       1  UNL1        0.0297
     42 H           2.9721   -2.2324   -0.6679 H       1  UNL1        0.1185
     43 H           1.5443   -1.4831   -0.9017 H       1  UNL1        0.1185
     44 H           3.4074   -5.8104    2.8843 H       1  UNL1        0.1185
     45 H           3.3925   -4.4146    3.7353 H       1  UNL1        0.1185
     46 H          -0.2352   -5.6305    3.5155 H       1  UNL1        0.2100
     47 H          -2.2053   -2.8302    2.6900 H       1  UNL1        0.2100
@<TRIPOS>BOND
     1     1     2    1
     2     3     1    1
     3     3     4    1
     4     5     3    1
     5     5     6    1
     6     7     5    1
     7     7     8    1
     8     9     7    1
     9     9    10    1
    10    11     9    1
    11    12    11    1
    12    13     9    1
    13    13     1    1
    14    14     7    1
    15    15     5    1
    16    16     3    1
    17    17     1    1
    18    18    17    1
    19    18    19    1
    20    20    18    1
    21    20    21    1
    22    22    20    1
    23    22    23    1
    24    24    22    1
    25    24    25    1
    26    26    24    1
    27    27    26    1
    28    27    28    1
    29    27    18    1
    30    29    27    1
    31    30    24    1
    32    31    22    1
    33    32    20    1
    34    11    33    1
    35    11    34    1
    36    12    35    1
    37    12    36    1
    38    15    37    1
    39    16    38    1
    40    16    39    1
    41    26    40    1
    42    26    41    1
    43    29    42    1
    44    29    43    1
    45    30    44    1
    46    30    45    1
    47    31    46    1
    48    32    47    1
