REMARK  10 active torsions:
REMARK  status: ('A' for Active; 'I' for Inactive)
REMARK    1  A    between atoms: O_12  and  C_1 
REMARK    2  A    between atoms: N_11  and  C_2 
REMARK    3  A    between atoms: O_10  and  C_3 
REMARK    4  A    between atoms: C_6  and  C_5 
REMARK    5  A    between atoms: N_7  and  C_6 
REMARK    6  A    between atoms: C_13  and  O_12 
REMARK    7  A    between atoms: O_22  and  C_14 
REMARK    8  A    between atoms: O_21  and  C_15 
REMARK    9  A    between atoms: N_20  and  C_16 
REMARK   10  A    between atoms: N_19  and  C_18 
ROOT
ATOM      1  O   UNL d   1      -0.787  -2.282   0.157  0.00  0.00    -0.349 OA
ENDROOT
BRANCH   1   2
ATOM      2  C   UNL d   1      -1.575  -1.085   0.166  0.00  0.00     0.296 C 
ATOM      3  C   UNL d   1      -3.096  -1.403   0.307  0.00  0.00     0.303 C 
ATOM      4  C   UNL d   1      -3.953  -0.347  -0.409  0.00  0.00     0.192 C 
ATOM      5  C   UNL d   1      -3.513  -0.118  -1.856  0.00  0.00     0.231 C 
ATOM      6  C   UNL d   1      -2.079  -0.578  -2.126  0.00  0.00     0.189 C 
ATOM      7  F   UNL d   1      -4.339  -0.837  -2.668  0.00  0.00    -0.244 F 
ATOM      8  O   UNL d   1      -1.279  -0.269  -0.982  0.00  0.00    -0.349 OA
BRANCH   3   9
ATOM      9  N   UNL d   1      -3.452  -2.753  -0.152  0.00  0.00     0.090 N 
ATOM     10  H   UNL d   1      -3.781  -2.728  -1.115  0.00  0.00     0.313 HD
ATOM     11  H   UNL d   1      -2.626  -3.353  -0.151  0.00  0.00     0.313 HD
ENDBRANCH   3   9
BRANCH   4  12
ATOM     12  O   UNL d   1      -3.812   0.892   0.299  0.00  0.00    -0.390 OA
ATOM     13  H   UNL d   1      -4.396   0.846   1.075  0.00  0.00     0.210 HD
ENDBRANCH   4  12
BRANCH   6  14
ATOM     14  C   UNL d   1      -1.497   0.153  -3.342  0.00  0.00     0.301 C 
BRANCH  14  15
ATOM     15  N   UNL d   1      -0.407  -0.594  -3.964  0.00  0.00     0.080 N 
ATOM     16  H   UNL d   1       0.228  -0.944  -3.248  0.00  0.00     0.312 HD
ATOM     17  H   UNL d   1      -0.784  -1.411  -4.442  0.00  0.00     0.312 HD
ENDBRANCH  14  15
ENDBRANCH   6  14
ENDBRANCH   1   2
BRANCH   1  18
ATOM     18  C   UNL d   1       0.205  -2.403   1.199  0.00  0.00     0.189 C 
ATOM     19  C   UNL d   1      -0.368  -3.356   2.254  0.00  0.00     0.180 C 
ATOM     20  C   UNL d   1       0.681  -3.925   3.206  0.00  0.00     0.182 C 
ATOM     21  C   UNL d   1       1.815  -4.601   2.434  0.00  0.00     0.251 C 
ATOM     22  C   UNL d   1       2.474  -3.571   1.512  0.00  0.00     0.076 C 
ATOM     23  C   UNL d   1       1.471  -2.959   0.519  0.00  0.00     0.251 C 
BRANCH  19  24
ATOM     24  O   UNL d   1      -1.319  -2.631   3.036  0.00  0.00    -0.390 OA
ATOM     25  H   UNL d   1      -2.205  -2.830   2.690  0.00  0.00     0.210 HD
ENDBRANCH  19  24
BRANCH  20  26
ATOM     26  O   UNL d   1       0.040  -4.875   4.065  0.00  0.00    -0.391 OA
ATOM     27  H   UNL d   1      -0.235  -5.630   3.515  0.00  0.00     0.210 HD
ENDBRANCH  20  26
BRANCH  21  28
ATOM     28  N   UNL d   1       2.796  -5.154   3.370  0.00  0.00     0.085 N 
ATOM     29  H   UNL d   1       3.407  -5.810   2.884  0.00  0.00     0.313 HD
ATOM     30  H   UNL d   1       3.393  -4.415   3.735  0.00  0.00     0.313 HD
ENDBRANCH  21  28
BRANCH  23  31
ATOM     31  N   UNL d   1       2.153  -1.868  -0.183  0.00  0.00     0.085 N 
ATOM     32  H   UNL d   1       2.972  -2.232  -0.668  0.00  0.00     0.313 HD
ATOM     33  H   UNL d   1       1.544  -1.483  -0.902  0.00  0.00     0.313 HD
ENDBRANCH  23  31
ENDBRANCH   1  18
TORSDOF 10
