REMARK  3 active torsions:
REMARK  status: ('A' for Active; 'I' for Inactive)
REMARK    1  A    between atoms: N_1  and  CA_2 
REMARK    2  A    between atoms: CA_2  and  C_3 
REMARK    3  A    between atoms: C_3  and  OXT_5 
ROOT
ATOM      1  CA  GLY d   1      -2.420 -46.717  11.222  0.00  0.00     0.376 C 
ENDROOT
BRANCH   1   2
ATOM      2  N   GLY d   1      -2.033 -48.146  11.078  0.00  0.00     0.088 N 
ATOM      3  H1  GLY d   1      -1.787 -48.335  10.106  0.00  0.00     0.313 HD
ATOM      4  H2  GLY d   1      -2.816 -48.740  11.352  0.00  0.00     0.313 HD
ENDBRANCH   1   2
BRANCH   1   5
ATOM      5  C   GLY d   1      -2.799 -46.366  12.646  0.00  0.00     0.168 C 
ATOM      6  O   GLY d   1      -2.419 -47.046  13.603  0.00  0.00    -0.649 OA
BRANCH   5   7
ATOM      7  OXT GLY d   1      -3.506 -45.385  12.879  0.00  0.00    -0.775 OA
ATOM      8  HXT GLY d   1      -3.811 -44.849  12.174  0.00  0.00     0.167 HD
ENDBRANCH   5   7
ENDBRANCH   1   5
TORSDOF 3
