@<TRIPOS>MOLECULE
3OWW_GLY_A_89
 10 9 0 0 0
SMALL
GASTEIGER
****
Coordinates from PDB:3OWW:A:89 Model:1 without hydrogens
@<TRIPOS>ATOM
      1 N          -2.0330  -48.1460   11.0780 N.3     1  GLY1       -0.3209
      2 CA         -2.4200  -46.7170   11.2220 C.3     1  GLY1        0.0918
      3 C          -2.7990  -46.3660   12.6460 C.2     1  GLY1        0.3185
      4 O          -2.4190  -47.0460   13.6030 O.2     1  GLY1       -0.2496
      5 OXT        -3.5060  -45.3850   12.8790 O.3     1  GLY1       -0.4797
      6 H1         -1.7869  -48.3354   10.1064 H       1  GLY1        0.1187
      7 H2         -2.8158  -48.7396   11.3524 H       1  GLY1        0.1187
      8 HA1        -3.2569  -46.5210   10.5847 H       1  GLY1        0.0537
      9 HA2        -1.5748  -46.1195   10.9509 H       1  GLY1        0.0537
     10 HXT        -3.8105  -44.8488   12.1735 H       1  GLY1        0.2951
@<TRIPOS>BOND
     1     1     2    1
     2     1     6    1
     3     1     7    1
     4     2     3    1
     5     2     8    1
     6     2     9    1
     7     3     4    2
     8     3     5    1
     9     5    10    1
