REMARK  22 active torsions:
REMARK  status: ('A' for Active; 'I' for Inactive)
REMARK    1  A    between atoms: C_1  and  O_2 
REMARK    2  A    between atoms: C_3  and  O_2 
REMARK    3  A    between atoms: C_4  and  N_32 
REMARK    4  A    between atoms: C_6  and  N_7 
REMARK    5  A    between atoms: C_8  and  O_31 
REMARK    6  A    between atoms: C_9  and  O_10 
REMARK    7  A    between atoms: O_10  and  C_11 
REMARK    8  A    between atoms: C_12  and  O_13 
REMARK    9  A    between atoms: C_14  and  O_15 
REMARK   10  A    between atoms: C_16  and  O_15 
REMARK   11  A    between atoms: C_17  and  N_18 
REMARK   12  A    between atoms: C_19  and  O_20 
REMARK   13  A    between atoms: C_21  and  O_22 
REMARK   14  A    between atoms: C_23  and  C_25 
REMARK   15  A    between atoms: C_25  and  N_26 
REMARK   16  A    between atoms: C_27  and  C_29 
REMARK   17  A    between atoms: C_29  and  O_30 
REMARK   18  A    between atoms: C_33  and  N_34 
REMARK   19  A    between atoms: C_35  and  O_36 
REMARK   20  A    between atoms: C_37  and  O_38 
REMARK   21  A    between atoms: C_39  and  C_41 
REMARK   22  A    between atoms: C_41  and  O_42 
ROOT
ATOM      1  C   UNL d   1       3.158  10.979  -0.890  0.00  0.00     0.189 C 
ATOM      2  C   UNL d   1       3.361   9.462  -1.097  0.00  0.00     0.251 C 
ATOM      3  C   UNL d   1       3.063   9.083  -2.552  0.00  0.00     0.076 C 
ATOM      4  C   UNL d   1       3.957   9.868  -3.514  0.00  0.00     0.251 C 
ATOM      5  C   UNL d   1       3.781  11.380  -3.331  0.00  0.00     0.182 C 
ATOM      6  C   UNL d   1       4.018  11.806  -1.873  0.00  0.00     0.186 C 
ENDROOT
BRANCH   6   7
ATOM      7  O   UNL d   1       3.948  13.235  -1.820  0.00  0.00    -0.348 OA
BRANCH   7   8
ATOM      8  C   UNL d   1       2.825  13.938  -1.309  0.00  0.00     0.292 C 
ATOM      9  C   UNL d   1       2.505  15.127  -2.213  0.00  0.00     0.205 C 
ATOM     10  C   UNL d   1       1.039  15.477  -1.882  0.00  0.00     0.189 C 
ATOM     11  C   UNL d   1       0.605  14.305  -0.990  0.00  0.00     0.180 C 
ATOM     12  O   UNL d   1       1.573  13.272  -1.226  0.00  0.00    -0.348 OA
BRANCH   9  13
ATOM     13  O   UNL d   1       3.422  16.178  -1.970  0.00  0.00    -0.388 OA
ATOM     14  H   UNL d   1       3.075  16.965  -2.421  0.00  0.00     0.210 HD
ENDBRANCH   9  13
BRANCH  10  15
ATOM     15  O   UNL d   1       0.959  16.793  -1.326  0.00  0.00    -0.348 OA
BRANCH  15  16
ATOM     16  C   UNL d   1      -0.116  17.115  -0.443  0.00  0.00     0.296 C 
ATOM     17  C   UNL d   1      -1.208  17.988  -1.116  0.00  0.00     0.303 C 
ATOM     18  C   UNL d   1      -0.871  19.478  -0.951  0.00  0.00     0.187 C 
ATOM     19  C   UNL d   1      -0.803  19.843   0.533  0.00  0.00     0.179 C 
ATOM     20  C   UNL d   1      -0.436  18.632   1.407  0.00  0.00     0.183 C 
ATOM     21  O   UNL d   1       0.469  17.780   0.698  0.00  0.00    -0.349 OA
BRANCH  17  22
ATOM     22  N   UNL d   1      -1.413  17.631  -2.517  0.00  0.00     0.090 N 
ATOM     23  H   UNL d   1      -2.113  18.259  -2.915  0.00  0.00     0.313 HD
ATOM     24  H   UNL d   1      -1.834  16.706  -2.563  0.00  0.00     0.313 HD
ENDBRANCH  17  22
BRANCH  18  25
ATOM     25  O   UNL d   1      -1.859  20.293  -1.581  0.00  0.00    -0.391 OA
ATOM     26  H   UNL d   1      -2.720  20.070  -1.184  0.00  0.00     0.210 HD
ENDBRANCH  18  25
BRANCH  19  27
ATOM     27  O   UNL d   1       0.149  20.895   0.654  0.00  0.00    -0.390 OA
ATOM     28  H   UNL d   1      -0.354  21.711   0.821  0.00  0.00     0.210 HD
ENDBRANCH  19  27
BRANCH  20  29
ATOM     29  C   UNL d   1       0.176  18.993   2.772  0.00  0.00     0.301 C 
BRANCH  29  30
ATOM     30  N   UNL d   1       1.591  19.345   2.686  0.00  0.00     0.080 N 
ATOM     31  H   UNL d   1       2.000  19.295   3.617  0.00  0.00     0.312 HD
ATOM     32  H   UNL d   1       1.679  20.317   2.389  0.00  0.00     0.312 HD
ENDBRANCH  29  30
ENDBRANCH  20  29
ENDBRANCH  15  16
ENDBRANCH  10  15
BRANCH  11  33
ATOM     33  C   UNL d   1      -0.759  13.730  -1.334  0.00  0.00     0.198 C 
BRANCH  33  34
ATOM     34  O   UNL d   1      -1.192  12.917  -0.249  0.00  0.00    -0.398 OA
ATOM     35  H   UNL d   1      -2.161  12.868  -0.295  0.00  0.00     0.209 HD
ENDBRANCH  33  34
ENDBRANCH  11  33
ENDBRANCH   7   8
ENDBRANCH   6   7
BRANCH   5  36
ATOM     36  O   UNL d   1       4.747  12.061  -4.142  0.00  0.00    -0.391 OA
ATOM     37  H   UNL d   1       4.389  12.089  -5.046  0.00  0.00     0.210 HD
ENDBRANCH   5  36
BRANCH   1  38
ATOM     38  O   UNL d   1       3.240  11.498   0.435  0.00  0.00    -0.349 OA
BRANCH  38  39
ATOM     39  C   UNL d   1       4.193  11.081   1.415  0.00  0.00     0.296 C 
ATOM     40  C   UNL d   1       5.087  12.262   1.853  0.00  0.00     0.303 C 
ATOM     41  C   UNL d   1       6.169  11.762   2.818  0.00  0.00     0.187 C 
ATOM     42  C   UNL d   1       6.989  10.615   2.201  0.00  0.00     0.180 C 
ATOM     43  C   UNL d   1       6.287   9.928   1.016  0.00  0.00     0.179 C 
ATOM     44  O   UNL d   1       4.881   9.846   1.240  0.00  0.00    -0.349 OA
BRANCH  40  45
ATOM     45  N   UNL d   1       5.670  13.019   0.746  0.00  0.00     0.090 N 
ATOM     46  H   UNL d   1       6.547  12.600   0.440  0.00  0.00     0.313 HD
ATOM     47  H   UNL d   1       5.903  13.962   1.051  0.00  0.00     0.313 HD
ENDBRANCH  40  45
BRANCH  41  48
ATOM     48  O   UNL d   1       5.515  11.248   3.982  0.00  0.00    -0.391 OA
ATOM     49  H   UNL d   1       5.709  11.852   4.717  0.00  0.00     0.210 HD
ENDBRANCH  41  48
BRANCH  42  50
ATOM     50  O   UNL d   1       8.217  11.161   1.708  0.00  0.00    -0.390 OA
ATOM     51  H   UNL d   1       8.942  10.696   2.163  0.00  0.00     0.210 HD
ENDBRANCH  42  50
BRANCH  43  52
ATOM     52  C   UNL d   1       6.790   8.492   0.819  0.00  0.00     0.198 C 
BRANCH  52  53
ATOM     53  O   UNL d   1       7.997   8.518   0.075  0.00  0.00    -0.398 OA
ATOM     54  H   UNL d   1       7.999   7.734  -0.501  0.00  0.00     0.209 HD
ENDBRANCH  52  53
ENDBRANCH  43  52
ENDBRANCH  38  39
ENDBRANCH   1  38
BRANCH   4  55
ATOM     55  N   UNL d   1       3.630   9.483  -4.888  0.00  0.00     0.085 N 
ATOM     56  H   UNL d   1       2.623   9.527  -5.035  0.00  0.00     0.313 HD
ATOM     57  H   UNL d   1       3.894   8.510  -5.040  0.00  0.00     0.313 HD
ENDBRANCH   4  55
BRANCH   2  58
ATOM     58  N   UNL d   1       2.504   8.667  -0.225  0.00  0.00     0.085 N 
ATOM     59  H   UNL d   1       1.525   8.826  -0.453  0.00  0.00     0.313 HD
ATOM     60  H   UNL d   1       2.619   8.956   0.744  0.00  0.00     0.313 HD
ENDBRANCH   2  58
TORSDOF 22
