@<TRIPOS>MOLECULE
3C44_PAR_A_24
 87 90 0 0 0
SMALL
GASTEIGER

@<TRIPOS>ATOM
      1 C           4.1933   11.0811    1.4145 C.3     1  UNL1        0.1776
      2 H           3.5536   10.8714    2.2784 H       1  UNL1        0.0927
      3 O           3.2398   11.4982    0.4346 O.3     1  UNL1       -0.3422
      4 C           3.1575   10.9788   -0.8899 C.3     1  UNL1        0.1055
      5 H           2.1116   11.1341   -1.1745 H       1  UNL1        0.0639
      6 C           3.3613    9.4620   -1.0971 C.3     1  UNL1        0.0355
      7 H           4.4049    9.1968   -0.9157 H       1  UNL1        0.0485
      8 C           3.0629    9.0829   -2.5520 C.3     1  UNL1       -0.0175
      9 C           3.9567    9.8678   -3.5144 C.3     1  UNL1        0.0351
     10 H           5.0077    9.6028   -3.3402 H       1  UNL1        0.0485
     11 N           3.6299    9.4831   -4.8880 N.3     1  UNL1       -0.3250
     12 C           3.7815   11.3795   -3.3307 C.3     1  UNL1        0.0990
     13 H           2.7898   11.7119   -3.6617 H       1  UNL1        0.0636
     14 C           4.0182   11.8065   -1.8728 C.3     1  UNL1        0.1166
     15 H           5.0657   11.5798   -1.6370 H       1  UNL1        0.0650
     16 O           3.9482   13.2354   -1.8200 O.3     1  UNL1       -0.3402
     17 C           2.8255   13.9376   -1.3089 C.3     1  UNL1        0.1884
     18 H           3.1059   14.2949   -0.3074 H       1  UNL1        0.0938
     19 C           2.5047   15.1274   -2.2128 C.3     1  UNL1        0.1345
     20 H           2.5902   14.8271   -3.2684 H       1  UNL1        0.0671
     21 O           3.4225   16.1782   -1.9698 O.3     1  UNL1       -0.3841
     22 C           1.0394   15.4766   -1.8824 C.3     1  UNL1        0.1205
     23 H           0.4592   15.4838   -2.8133 H       1  UNL1        0.0651
     24 O           0.9588   16.7928   -1.3264 O.3     1  UNL1       -0.3410
     25 C          -0.1164   17.1146   -0.4427 C.3     1  UNL1        0.1776
     26 H          -0.5958   16.2159   -0.0568 H       1  UNL1        0.0927
     27 C          -1.2083   17.9881   -1.1163 C.3     1  UNL1        0.0853
     28 H          -2.1619   17.7963   -0.6007 H       1  UNL1        0.0535
     29 N          -1.4132   17.6313   -2.5167 N.3     1  UNL1       -0.3211
     30 C          -0.8712   19.4779   -0.9507 C.3     1  UNL1        0.1033
     31 H           0.0806   19.7015   -1.4525 H       1  UNL1        0.0637
     32 O          -1.8587   20.2933   -1.5812 O.3     1  UNL1       -0.3874
     33 C          -0.8026   19.8433    0.5328 C.3     1  UNL1        0.1100
     34 H          -1.7668   20.2355    0.8783 H       1  UNL1        0.0646
     35 O           0.1493   20.8951    0.6536 O.3     1  UNL1       -0.3866
     36 C          -0.4363   18.6316    1.4073 C.3     1  UNL1        0.1022
     37 H          -1.3435   18.0425    1.6094 H       1  UNL1        0.0636
     38 O           0.4694   17.7799    0.6984 O.3     1  UNL1       -0.3425
     39 C           0.1765   18.9928    2.7721 C.3     1  UNL1        0.0222
     40 N           1.5913   19.3451    2.6858 N.3     1  UNL1       -0.3276
     41 C           0.6050   14.3049   -0.9898 C.3     1  UNL1        0.1135
     42 H           0.6650   14.5571    0.0771 H       1  UNL1        0.0647
     43 O           1.5726   13.2719   -1.2263 O.3     1  UNL1       -0.3405
     44 C          -0.7590   13.7298   -1.3344 C.3     1  UNL1        0.0730
     45 O          -1.1916   12.9166   -0.2489 O.3     1  UNL1       -0.3924
     46 O           4.7471   12.0607   -4.1424 O.3     1  UNL1       -0.3876
     47 N           2.5041    8.6673   -0.2250 N.3     1  UNL1       -0.3250
     48 C           5.0866   12.2625    1.8533 C.3     1  UNL1        0.0853
     49 H           4.4391   12.9654    2.3943 H       1  UNL1        0.0535
     50 N           5.6696   13.0190    0.7455 N.3     1  UNL1       -0.3211
     51 C           6.1687   11.7616    2.8184 C.3     1  UNL1        0.1033
     52 H           6.8263   12.5838    3.1273 H       1  UNL1        0.0637
     53 O           5.5151   11.2477    3.9820 O.3     1  UNL1       -0.3874
     54 C           6.9888   10.6150    2.2012 C.3     1  UNL1        0.1109
     55 H           7.2416    9.8876    2.9819 H       1  UNL1        0.0646
     56 O           8.2174   11.1606    1.7083 O.3     1  UNL1       -0.3865
     57 C           6.2874    9.9283    1.0163 C.3     1  UNL1        0.1129
     58 H           6.4514   10.4759    0.0794 H       1  UNL1        0.0647
     59 O           4.8812    9.8457    1.2395 O.3     1  UNL1       -0.3415
     60 C           6.7899    8.4922    0.8188 C.3     1  UNL1        0.0730
     61 O           7.9970    8.5178    0.0747 O.3     1  UNL1       -0.3924
     62 H           2.0058    9.2768   -2.7762 H       1  UNL1        0.0297
     63 H           3.2158    8.0063   -2.6944 H       1  UNL1        0.0297
     64 H           2.6229    9.5270   -5.0353 H       1  UNL1        0.1185
     65 H           3.8941    8.5102   -5.0395 H       1  UNL1        0.1185
     66 H           3.0749   16.9645   -2.4210 H       1  UNL1        0.2101
     67 H          -2.1133   18.2586   -2.9152 H       1  UNL1        0.1187
     68 H          -1.8336   16.7057   -2.5629 H       1  UNL1        0.1187
     69 H          -2.7202   20.0696   -1.1844 H       1  UNL1        0.2100
     70 H          -0.3536   21.7106    0.8207 H       1  UNL1        0.2100
     71 H           0.0709   18.1215    3.4324 H       1  UNL1        0.0448
     72 H          -0.3781   19.8173    3.2464 H       1  UNL1        0.0448
     73 H           1.9995   19.2950    3.6170 H       1  UNL1        0.1183
     74 H           1.6793   20.3172    2.3889 H       1  UNL1        0.1183
     75 H          -1.4963   14.5219   -1.4976 H       1  UNL1        0.0584
     76 H          -0.7173   13.1040   -2.2324 H       1  UNL1        0.0584
     77 H          -2.1611   12.8677   -0.2948 H       1  UNL1        0.2095
     78 H           4.3894   12.0894   -5.0461 H       1  UNL1        0.2100
     79 H           1.5248    8.8264   -0.4532 H       1  UNL1        0.1185
     80 H           2.6186    8.9559    0.7439 H       1  UNL1        0.1185
     81 H           6.5468   12.5999    0.4404 H       1  UNL1        0.1187
     82 H           5.9026   13.9620    1.0513 H       1  UNL1        0.1187
     83 H           5.7091   11.8523    4.7168 H       1  UNL1        0.2100
     84 H           8.9417   10.6956    2.1626 H       1  UNL1        0.2100
     85 H           6.9794    7.9881    1.7693 H       1  UNL1        0.0584
     86 H           6.0588    7.8960    0.2661 H       1  UNL1        0.0584
     87 H           7.9994    7.7339   -0.5011 H       1  UNL1        0.2095
@<TRIPOS>BOND
     1     1    48    1
     2     1    59    1
     3     1     3    1
     4     1     2    1
     5     4     6    1
     6     4     5    1
     7     4     3    1
     8     6     7    1
     9     6     8    1
    10     6    47    1
    11     8     9    1
    12     8    62    1
    13     8    63    1
    14     9    12    1
    15     9    11    1
    16     9    10    1
    17    11    64    1
    18    11    65    1
    19    12    13    1
    20    12    14    1
    21    12    46    1
    22    14     4    1
    23    14    16    1
    24    14    15    1
    25    16    17    1
    26    17    18    1
    27    17    19    1
    28    17    43    1
    29    19    22    1
    30    19    21    1
    31    19    20    1
    32    21    66    1
    33    22    23    1
    34    22    24    1
    35    22    41    1
    36    25    27    1
    37    25    38    1
    38    25    26    1
    39    25    24    1
    40    27    30    1
    41    27    29    1
    42    27    28    1
    43    29    67    1
    44    29    68    1
    45    30    32    1
    46    30    31    1
    47    32    69    1
    48    33    30    1
    49    33    34    1
    50    33    35    1
    51    35    70    1
    52    36    33    1
    53    36    37    1
    54    36    38    1
    55    36    39    1
    56    39    40    1
    57    39    71    1
    58    39    72    1
    59    40    73    1
    60    40    74    1
    61    41    43    1
    62    41    44    1
    63    41    42    1
    64    44    45    1
    65    44    75    1
    66    44    76    1
    67    45    77    1
    68    46    78    1
    69    47    79    1
    70    47    80    1
    71    48    51    1
    72    48    50    1
    73    48    49    1
    74    50    81    1
    75    50    82    1
    76    51    54    1
    77    51    53    1
    78    51    52    1
    79    53    83    1
    80    54    55    1
    81    54    56    1
    82    54    57    1
    83    56    84    1
    84    57    59    1
    85    57    60    1
    86    57    58    1
    87    60    61    1
    88    60    85    1
    89    60    86    1
    90    61    87    1
