@<TRIPOS>MOLECULE
4PDQ_NMZ_B_101
 101 104 0 0 0
SMALL
GASTEIGER

@<TRIPOS>ATOM
      1 C           0.4602   -6.1853   -0.0234 C.3     1  UNL1        0.1555
      2 H           0.2293   -5.6707   -0.9610 H       1  UNL1        0.0705
      3 C          -0.4983   -7.3359    0.2431 C.3     1  UNL1        0.1073
      4 H          -1.5086   -6.9249    0.2859 H       1  UNL1        0.0639
      5 C          -0.4192   -8.3553   -0.9073 C.3     1  UNL1        0.0225
      6 N          -1.4573   -9.3801   -0.7956 N.3     1  UNL1       -0.3276
      7 O          -0.2457   -8.0460    1.4654 O.3     1  UNL1       -0.3422
      8 C           0.1024   -7.3130    2.6303 C.3     1  UNL1        0.1776
      9 H           0.9214   -7.9231    3.0304 H       1  UNL1        0.0927
     10 C           0.8917   -5.9575    2.4087 C.3     1  UNL1        0.0856
     11 H           1.9152   -6.2741    2.1541 H       1  UNL1        0.0535
     12 C           0.4089   -5.2247    1.1525 C.3     1  UNL1        0.1084
     13 H          -0.6085   -4.8451    1.2999 H       1  UNL1        0.0640
     14 O           1.2393   -4.0849    0.8840 O.3     1  UNL1       -0.3871
     15 N           1.1167   -4.9673    3.4866 N.3     1  UNL1       -0.3211
     16 O          -0.8163   -7.5227    3.6918 O.3     1  UNL1       -0.3422
     17 C          -2.2301   -7.2809    3.7450 C.3     1  UNL1        0.1055
     18 H          -2.3159   -6.2010    3.8776 H       1  UNL1        0.0639
     19 C          -3.1958   -7.7399    2.6048 C.3     1  UNL1        0.1169
     20 H          -2.8986   -7.3092    1.6513 H       1  UNL1        0.0650
     21 C          -3.2994   -9.2904    2.4483 C.3     1  UNL1        0.1022
     22 H          -4.0344   -9.5117    1.6649 H       1  UNL1        0.0639
     23 C          -3.7500   -9.9870    3.7586 C.3     1  UNL1        0.0531
     24 H          -3.6245  -11.0712    3.6353 H       1  UNL1        0.0525
     25 C          -2.7905   -9.5331    4.8880 C.3     1  UNL1       -0.0143
     26 C          -2.6864   -8.0009    5.0794 C.3     1  UNL1        0.0358
     27 H          -1.9123   -7.8218    5.8341 H       1  UNL1        0.0485
     28 N          -3.9479   -7.5456    5.6767 N.3     1  UNL1       -0.3250
     29 N          -5.1653   -9.8082    4.1465 N.am    1  UNL1       -0.3077
     30 C          -6.2639  -10.2853    3.4393 C.2     1  UNL1        0.2420
     31 O          -6.1881  -10.8125    2.3264 O.2     1  UNL1       -0.2730
     32 C          -7.6299  -10.0523    4.1773 C.3     1  UNL1        0.1320
     33 H          -7.5122   -9.1833    4.8335 H       1  UNL1        0.0690
     34 C          -8.0994  -11.2610    5.0002 C.3     1  UNL1       -0.0059
     35 C          -7.2853  -11.5547    6.2537 C.3     1  UNL1       -0.0041
     36 N          -5.9411  -12.0056    5.9385 N.3     1  UNL1       -0.3299
     37 O          -8.7102   -9.7119    3.2962 O.3     1  UNL1       -0.3825
     38 O          -2.0728   -9.9011    2.0226 O.3     1  UNL1       -0.3873
     39 O          -4.5509   -7.3509    2.8690 O.3     1  UNL1       -0.3402
     40 C          -4.9338   -5.9944    2.8417 C.3     1  UNL1        0.1884
     41 H          -4.7326   -5.5649    1.8546 H       1  UNL1        0.0938
     42 C          -6.4329   -6.0215    3.1675 C.3     1  UNL1        0.1345
     43 H          -6.6209   -6.7020    4.0087 H       1  UNL1        0.0671
     44 C          -6.6649   -4.5879    3.6354 C.3     1  UNL1        0.1205
     45 H          -7.5479   -4.4852    4.2786 H       1  UNL1        0.0651
     46 C          -5.3701   -4.3291    4.4145 C.3     1  UNL1        0.1135
     47 H          -5.0060   -3.3049    4.2876 H       1  UNL1        0.0647
     48 C          -5.5345   -4.6256    5.9135 C.3     1  UNL1        0.0730
     49 O          -4.2643   -4.6135    6.5783 O.3     1  UNL1       -0.3924
     50 O          -4.3464   -5.1951    3.8589 O.3     1  UNL1       -0.3405
     51 O          -6.7361   -3.6447    2.5564 O.3     1  UNL1       -0.3410
     52 C          -7.9759   -3.7587    1.8643 C.3     1  UNL1        0.1776
     53 H          -8.0024   -4.7416    1.4092 H       1  UNL1        0.0927
     54 C          -8.1080   -2.7998    0.6586 C.3     1  UNL1        0.0853
     55 H          -7.2433   -2.9517    0.0008 H       1  UNL1        0.0535
     56 C          -9.4155   -3.2183   -0.0755 C.3     1  UNL1        0.1033
     57 H          -9.6238   -2.4689   -0.8480 H       1  UNL1        0.0637
     58 C         -10.6325   -3.3284    0.8787 C.3     1  UNL1        0.1100
     59 H         -11.4697   -3.8106    0.3572 H       1  UNL1        0.0646
     60 C         -10.2776   -4.1616    2.1303 C.3     1  UNL1        0.1022
     61 H         -10.0777   -5.2016    1.8352 H       1  UNL1        0.0636
     62 C         -11.4049   -4.1854    3.1796 C.3     1  UNL1        0.0222
     63 N         -11.1075   -5.0999    4.2949 N.3     1  UNL1       -0.3276
     64 O          -9.0923   -3.6180    2.7344 O.3     1  UNL1       -0.3425
     65 O         -11.0638   -2.0207    1.2697 O.3     1  UNL1       -0.3866
     66 O          -9.2326   -4.4518   -0.7871 O.3     1  UNL1       -0.3874
     67 N          -8.1019   -1.3826    1.0763 N.3     1  UNL1       -0.3211
     68 O          -7.2476   -6.4989    2.1016 O.3     1  UNL1       -0.3841
     69 F           1.7249   -6.6889   -0.1474 F       1  UNL1       -0.2400
     70 H           0.5600   -8.8487   -0.9030 H       1  UNL1        0.0448
     71 H          -0.5449   -7.8467   -1.8673 H       1  UNL1        0.0448
     72 H          -1.3964   -9.8361    0.1249 H       1  UNL1        0.1183
     73 H          -1.2780  -10.1252   -1.4674 H       1  UNL1        0.1183
     74 H           1.5883   -3.8164    1.7600 H       1  UNL1        0.2100
     75 H           1.8530   -5.3024    4.1111 H       1  UNL1        0.1187
     76 H           0.2827   -4.8476    4.0573 H       1  UNL1        0.1187
     77 H          -1.7852   -9.9116    4.6621 H       1  UNL1        0.0300
     78 H          -3.0833  -10.0059    5.8340 H       1  UNL1        0.0300
     79 H          -3.8552   -6.5543    5.9323 H       1  UNL1        0.1185
     80 H          -4.6581   -7.5629    4.9390 H       1  UNL1        0.1185
     81 H          -5.3115   -9.7830    5.1503 H       1  UNL1        0.1491
     82 H          -8.1511  -12.1535    4.3616 H       1  UNL1        0.0307
     83 H          -9.1369  -11.0778    5.3162 H       1  UNL1        0.0307
     84 H          -7.7945  -12.3317    6.8357 H       1  UNL1        0.0423
     85 H          -7.2334  -10.6596    6.8827 H       1  UNL1        0.0423
     86 H          -5.9702  -12.8640    5.3783 H       1  UNL1        0.1182
     87 H          -5.4625  -12.2650    6.7989 H       1  UNL1        0.1182
     88 H          -9.0476  -10.5411    2.9134 H       1  UNL1        0.2104
     89 H          -1.3563   -9.2405    2.0898 H       1  UNL1        0.2100
     90 H          -6.1695   -3.8756    6.3942 H       1  UNL1        0.0584
     91 H          -5.9733   -5.6040    6.0911 H       1  UNL1        0.0584
     92 H          -3.8049   -3.7887    6.3401 H       1  UNL1        0.2095
     93 H         -12.3405   -4.5076    2.7098 H       1  UNL1        0.0448
     94 H         -11.5528   -3.1886    3.6035 H       1  UNL1        0.0448
     95 H         -10.9608   -6.0482    3.9511 H       1  UNL1        0.1183
     96 H         -11.9032   -5.1320    4.9297 H       1  UNL1        0.1183
     97 H         -11.1448   -1.4758    0.4680 H       1  UNL1        0.2100
     98 H          -9.2617   -5.2193   -0.1885 H       1  UNL1        0.2100
     99 H          -8.7957   -1.2748    1.8241 H       1  UNL1        0.1187
    100 H          -8.3939   -0.7858    0.3081 H       1  UNL1        0.1187
    101 H          -6.6824   -6.6034    1.3153 H       1  UNL1        0.2101
@<TRIPOS>BOND
     1     1     2    1
     2     1     3    1
     3     1    69    1
     4     3     4    1
     5     3     5    1
     6     3     7    1
     7     5     6    1
     8     5    70    1
     9     5    71    1
    10     6    72    1
    11     6    73    1
    12     7     8    1
    13     8     9    1
    14     8    10    1
    15     8    16    1
    16    10    11    1
    17    10    12    1
    18    10    15    1
    19    12     1    1
    20    12    14    1
    21    12    13    1
    22    14    74    1
    23    15    75    1
    24    15    76    1
    25    16    17    1
    26    17    18    1
    27    17    19    1
    28    19    21    1
    29    19    39    1
    30    19    20    1
    31    21    23    1
    32    21    38    1
    33    21    22    1
    34    23    24    1
    35    23    25    1
    36    23    29    1
    37    25    26    1
    38    25    77    1
    39    25    78    1
    40    26    27    1
    41    26    17    1
    42    26    28    1
    43    28    79    1
    44    28    80    1
    45    29    30   am
    46    29    81    1
    47    30    31    2
    48    32    34    1
    49    32    37    1
    50    32    33    1
    51    32    30    1
    52    34    35    1
    53    34    82    1
    54    34    83    1
    55    35    36    1
    56    35    84    1
    57    35    85    1
    58    36    86    1
    59    36    87    1
    60    37    88    1
    61    38    89    1
    62    39    40    1
    63    40    41    1
    64    40    42    1
    65    40    50    1
    66    42    44    1
    67    42    68    1
    68    42    43    1
    69    44    45    1
    70    44    46    1
    71    44    51    1
    72    46    50    1
    73    46    48    1
    74    46    47    1
    75    48    49    1
    76    48    90    1
    77    48    91    1
    78    49    92    1
    79    52    54    1
    80    52    64    1
    81    52    53    1
    82    52    51    1
    83    54    56    1
    84    54    67    1
    85    54    55    1
    86    56    58    1
    87    56    66    1
    88    56    57    1
    89    58    59    1
    90    58    60    1
    91    58    65    1
    92    60    61    1
    93    60    62    1
    94    60    64    1
    95    62    63    1
    96    62    93    1
    97    62    94    1
    98    63    95    1
    99    63    96    1
   100    65    97    1
   101    66    98    1
   102    67    99    1
   103    67   100    1
   104    68   101    1
