4PDQ_NMZ_B_101
 OpenBabel03221817323D

101104  0  0  1  0  0  0  0  0999 V2000
    0.4602   -6.1853   -0.0234 C   0  0  1  0  0  0  0  0  0  0  0  0
    0.2293   -5.6707   -0.9610 H   0  0  0  0  0  0  0  0  0  0  0  0
   -0.4983   -7.3359    0.2431 C   0  0  1  0  0  0  0  0  0  0  0  0
   -1.5086   -6.9249    0.2859 H   0  0  0  0  0  0  0  0  0  0  0  0
   -0.4192   -8.3553   -0.9073 C   0  0  0  0  0  0  0  0  0  0  0  0
   -1.4573   -9.3801   -0.7956 N   0  0  0  0  0  0  0  0  0  0  0  0
   -0.2457   -8.0460    1.4654 O   0  0  0  0  0  0  0  0  0  0  0  0
    0.1024   -7.3130    2.6303 C   0  0  1  0  0  0  0  0  0  0  0  0
    0.9214   -7.9231    3.0304 H   0  0  0  0  0  0  0  0  0  0  0  0
    0.8917   -5.9575    2.4087 C   0  0  1  0  0  0  0  0  0  0  0  0
    1.9152   -6.2741    2.1541 H   0  0  0  0  0  0  0  0  0  0  0  0
    0.4089   -5.2247    1.1525 C   0  0  1  0  0  0  0  0  0  0  0  0
   -0.6085   -4.8451    1.2999 H   0  0  0  0  0  0  0  0  0  0  0  0
    1.2393   -4.0849    0.8840 O   0  0  0  0  0  0  0  0  0  0  0  0
    1.1167   -4.9673    3.4866 N   0  0  0  0  0  0  0  0  0  0  0  0
   -0.8163   -7.5227    3.6918 O   0  0  0  0  0  0  0  0  0  0  0  0
   -2.2301   -7.2809    3.7450 C   0  0  1  0  0  0  0  0  0  0  0  0
   -2.3159   -6.2010    3.8776 H   0  0  0  0  0  0  0  0  0  0  0  0
   -3.1958   -7.7399    2.6048 C   0  0  1  0  0  0  0  0  0  0  0  0
   -2.8986   -7.3092    1.6513 H   0  0  0  0  0  0  0  0  0  0  0  0
   -3.2994   -9.2904    2.4483 C   0  0  2  0  0  0  0  0  0  0  0  0
   -4.0344   -9.5117    1.6649 H   0  0  0  0  0  0  0  0  0  0  0  0
   -3.7500   -9.9870    3.7586 C   0  0  1  0  0  0  0  0  0  0  0  0
   -3.6245  -11.0712    3.6353 H   0  0  0  0  0  0  0  0  0  0  0  0
   -2.7905   -9.5331    4.8880 C   0  0  0  0  0  0  0  0  0  0  0  0
   -2.6864   -8.0009    5.0794 C   0  0  2  0  0  0  0  0  0  0  0  0
   -1.9123   -7.8218    5.8341 H   0  0  0  0  0  0  0  0  0  0  0  0
   -3.9479   -7.5456    5.6767 N   0  0  0  0  0  0  0  0  0  0  0  0
   -5.1653   -9.8082    4.1465 N   0  0  0  0  0  0  0  0  0  0  0  0
   -6.2639  -10.2853    3.4393 C   0  0  0  0  0  0  0  0  0  0  0  0
   -6.1881  -10.8125    2.3264 O   0  0  0  0  0  0  0  0  0  0  0  0
   -7.6299  -10.0523    4.1773 C   0  0  2  0  0  0  0  0  0  0  0  0
   -7.5122   -9.1833    4.8335 H   0  0  0  0  0  0  0  0  0  0  0  0
   -8.0994  -11.2610    5.0002 C   0  0  0  0  0  0  0  0  0  0  0  0
   -7.2853  -11.5547    6.2537 C   0  0  0  0  0  0  0  0  0  0  0  0
   -5.9411  -12.0056    5.9385 N   0  0  0  0  0  0  0  0  0  0  0  0
   -8.7102   -9.7119    3.2962 O   0  0  0  0  0  0  0  0  0  0  0  0
   -2.0728   -9.9011    2.0226 O   0  0  0  0  0  0  0  0  0  0  0  0
   -4.5509   -7.3509    2.8690 O   0  0  0  0  0  0  0  0  0  0  0  0
   -4.9338   -5.9944    2.8417 C   0  0  1  0  0  0  0  0  0  0  0  0
   -4.7326   -5.5649    1.8546 H   0  0  0  0  0  0  0  0  0  0  0  0
   -6.4329   -6.0215    3.1675 C   0  0  1  0  0  0  0  0  0  0  0  0
   -6.6209   -6.7020    4.0087 H   0  0  0  0  0  0  0  0  0  0  0  0
   -6.6649   -4.5879    3.6354 C   0  0  1  0  0  0  0  0  0  0  0  0
   -7.5479   -4.4852    4.2786 H   0  0  0  0  0  0  0  0  0  0  0  0
   -5.3701   -4.3291    4.4145 C   0  0  1  0  0  0  0  0  0  0  0  0
   -5.0060   -3.3049    4.2876 H   0  0  0  0  0  0  0  0  0  0  0  0
   -5.5345   -4.6256    5.9135 C   0  0  0  0  0  0  0  0  0  0  0  0
   -4.2643   -4.6135    6.5783 O   0  0  0  0  0  0  0  0  0  0  0  0
   -4.3464   -5.1951    3.8589 O   0  0  0  0  0  0  0  0  0  0  0  0
   -6.7361   -3.6447    2.5564 O   0  0  0  0  0  0  0  0  0  0  0  0
   -7.9759   -3.7587    1.8643 C   0  0  2  0  0  0  0  0  0  0  0  0
   -8.0024   -4.7416    1.4092 H   0  0  0  0  0  0  0  0  0  0  0  0
   -8.1080   -2.7998    0.6586 C   0  0  1  0  0  0  0  0  0  0  0  0
   -7.2433   -2.9517    0.0008 H   0  0  0  0  0  0  0  0  0  0  0  0
   -9.4155   -3.2183   -0.0755 C   0  0  2  0  0  0  0  0  0  0  0  0
   -9.6238   -2.4689   -0.8480 H   0  0  0  0  0  0  0  0  0  0  0  0
  -10.6325   -3.3284    0.8787 C   0  0  1  0  0  0  0  0  0  0  0  0
  -11.4697   -3.8106    0.3572 H   0  0  0  0  0  0  0  0  0  0  0  0
  -10.2776   -4.1616    2.1303 C   0  0  2  0  0  0  0  0  0  0  0  0
  -10.0777   -5.2016    1.8352 H   0  0  0  0  0  0  0  0  0  0  0  0
  -11.4049   -4.1854    3.1796 C   0  0  0  0  0  0  0  0  0  0  0  0
  -11.1075   -5.0999    4.2949 N   0  0  0  0  0  0  0  0  0  0  0  0
   -9.0923   -3.6180    2.7344 O   0  0  0  0  0  0  0  0  0  0  0  0
  -11.0638   -2.0207    1.2697 O   0  0  0  0  0  0  0  0  0  0  0  0
   -9.2326   -4.4518   -0.7871 O   0  0  0  0  0  0  0  0  0  0  0  0
   -8.1019   -1.3826    1.0763 N   0  0  0  0  0  0  0  0  0  0  0  0
   -7.2476   -6.4989    2.1016 O   0  0  0  0  0  0  0  0  0  0  0  0
    1.7249   -6.6889   -0.1474 F   0  0  0  0  0  0  0  0  0  0  0  0
    0.5600   -8.8487   -0.9030 H   0  0  0  0  0  0  0  0  0  0  0  0
   -0.5449   -7.8467   -1.8673 H   0  0  0  0  0  0  0  0  0  0  0  0
   -1.3964   -9.8361    0.1249 H   0  0  0  0  0  0  0  0  0  0  0  0
   -1.2780  -10.1252   -1.4674 H   0  0  0  0  0  0  0  0  0  0  0  0
    1.5883   -3.8164    1.7600 H   0  0  0  0  0  0  0  0  0  0  0  0
    1.8530   -5.3024    4.1111 H   0  0  0  0  0  0  0  0  0  0  0  0
    0.2827   -4.8476    4.0573 H   0  0  0  0  0  0  0  0  0  0  0  0
   -1.7852   -9.9116    4.6621 H   0  0  0  0  0  0  0  0  0  0  0  0
   -3.0833  -10.0059    5.8340 H   0  0  0  0  0  0  0  0  0  0  0  0
   -3.8552   -6.5543    5.9323 H   0  0  0  0  0  0  0  0  0  0  0  0
   -4.6581   -7.5629    4.9390 H   0  0  0  0  0  0  0  0  0  0  0  0
   -5.3115   -9.7830    5.1503 H   0  0  0  0  0  0  0  0  0  0  0  0
   -8.1511  -12.1535    4.3616 H   0  0  0  0  0  0  0  0  0  0  0  0
   -9.1369  -11.0778    5.3162 H   0  0  0  0  0  0  0  0  0  0  0  0
   -7.7945  -12.3317    6.8357 H   0  0  0  0  0  0  0  0  0  0  0  0
   -7.2334  -10.6596    6.8827 H   0  0  0  0  0  0  0  0  0  0  0  0
   -5.9702  -12.8640    5.3783 H   0  0  0  0  0  0  0  0  0  0  0  0
   -5.4625  -12.2650    6.7989 H   0  0  0  0  0  0  0  0  0  0  0  0
   -9.0476  -10.5411    2.9134 H   0  0  0  0  0  0  0  0  0  0  0  0
   -1.3563   -9.2405    2.0898 H   0  0  0  0  0  0  0  0  0  0  0  0
   -6.1695   -3.8756    6.3942 H   0  0  0  0  0  0  0  0  0  0  0  0
   -5.9733   -5.6040    6.0911 H   0  0  0  0  0  0  0  0  0  0  0  0
   -3.8049   -3.7887    6.3401 H   0  0  0  0  0  0  0  0  0  0  0  0
  -12.3405   -4.5076    2.7098 H   0  0  0  0  0  0  0  0  0  0  0  0
  -11.5528   -3.1886    3.6035 H   0  0  0  0  0  0  0  0  0  0  0  0
  -10.9608   -6.0482    3.9511 H   0  0  0  0  0  0  0  0  0  0  0  0
  -11.9032   -5.1320    4.9297 H   0  0  0  0  0  0  0  0  0  0  0  0
  -11.1448   -1.4758    0.4680 H   0  0  0  0  0  0  0  0  0  0  0  0
   -9.2617   -5.2193   -0.1885 H   0  0  0  0  0  0  0  0  0  0  0  0
   -8.7957   -1.2748    1.8241 H   0  0  0  0  0  0  0  0  0  0  0  0
   -8.3939   -0.7858    0.3081 H   0  0  0  0  0  0  0  0  0  0  0  0
   -6.6824   -6.6034    1.3153 H   0  0  0  0  0  0  0  0  0  0  0  0
  1  2  1  0  0  0  0
  1  3  1  1  0  0  0
  1 69  1  0  0  0  0
  3  4  1  1  0  0  0
  3  5  1  0  0  0  0
  3  7  1  0  0  0  0
  5  6  1  0  0  0  0
  5 70  1  0  0  0  0
  5 71  1  0  0  0  0
  6 72  1  0  0  0  0
  6 73  1  0  0  0  0
  7  8  1  0  0  0  0
  8  9  1  0  0  0  0
  8 10  1  6  0  0  0
  8 16  1  0  0  0  0
 10 11  1  0  0  0  0
 10 12  1  6  0  0  0
 10 15  1  0  0  0  0
 12  1  1  6  0  0  0
 12 14  1  0  0  0  0
 12 13  1  0  0  0  0
 14 74  1  0  0  0  0
 15 75  1  0  0  0  0
 15 76  1  0  0  0  0
 16 17  1  0  0  0  0
 17 18  1  0  0  0  0
 17 19  1  6  0  0  0
 19 21  1  6  0  0  0
 19 39  1  0  0  0  0
 19 20  1  0  0  0  0
 21 23  1  1  0  0  0
 21 38  1  0  0  0  0
 21 22  1  0  0  0  0
 23 24  1  6  0  0  0
 23 25  1  0  0  0  0
 23 29  1  0  0  0  0
 25 26  1  0  0  0  0
 25 77  1  0  0  0  0
 25 78  1  0  0  0  0
 26 27  1  0  0  0  0
 26 17  1  6  0  0  0
 26 28  1  0  0  0  0
 28 79  1  0  0  0  0
 28 80  1  0  0  0  0
 29 30  1  0  0  0  0
 29 81  1  0  0  0  0
 30 31  2  0  0  0  0
 32 34  1  0  0  0  0
 32 37  1  0  0  0  0
 32 33  1  1  0  0  0
 32 30  1  0  0  0  0
 34 35  1  0  0  0  0
 34 82  1  0  0  0  0
 34 83  1  0  0  0  0
 35 36  1  0  0  0  0
 35 84  1  0  0  0  0
 35 85  1  0  0  0  0
 36 86  1  0  0  0  0
 36 87  1  0  0  0  0
 37 88  1  0  0  0  0
 38 89  1  0  0  0  0
 39 40  1  0  0  0  0
 40 41  1  0  0  0  0
 40 42  1  1  0  0  0
 40 50  1  0  0  0  0
 42 44  1  1  0  0  0
 42 68  1  0  0  0  0
 42 43  1  0  0  0  0
 44 45  1  0  0  0  0
 44 46  1  1  0  0  0
 44 51  1  0  0  0  0
 46 50  1  0  0  0  0
 46 48  1  0  0  0  0
 46 47  1  6  0  0  0
 48 49  1  0  0  0  0
 48 90  1  0  0  0  0
 48 91  1  0  0  0  0
 49 92  1  0  0  0  0
 52 54  1  6  0  0  0
 52 64  1  0  0  0  0
 52 53  1  0  0  0  0
 52 51  1  0  0  0  0
 54 56  1  6  0  0  0
 54 67  1  0  0  0  0
 54 55  1  0  0  0  0
 56 58  1  1  0  0  0
 56 66  1  0  0  0  0
 56 57  1  0  0  0  0
 58 59  1  0  0  0  0
 58 60  1  1  0  0  0
 58 65  1  0  0  0  0
 60 61  1  6  0  0  0
 60 62  1  0  0  0  0
 60 64  1  0  0  0  0
 62 63  1  0  0  0  0
 62 93  1  0  0  0  0
 62 94  1  0  0  0  0
 63 95  1  0  0  0  0
 63 96  1  0  0  0  0
 65 97  1  0  0  0  0
 66 98  1  0  0  0  0
 67 99  1  0  0  0  0
 67100  1  0  0  0  0
 68101  1  0  0  0  0
M  END
$$$$
