@<TRIPOS>MOLECULE
3SKZ_GMP_A_120
 33 35 0 0 0
SMALL
GASTEIGER

@<TRIPOS>ATOM
      1 O5*        -3.4135    2.1477    1.0170 O.3     1    G1       -0.3924
      2 C5*        -2.2107    1.6218    1.5548 C.3     1    G1        0.0730
      3 C4*        -1.9510    0.2109    1.0391 C.3     1    G1        0.1126
      4 H4*        -2.8381   -0.4348    1.1666 H       1    G1        0.0647
      5 O4*        -1.5965    0.1941   -0.3634 O.3     1    G1       -0.3457
      6 C1*        -1.0328   -1.1280   -0.5835 C.3     1    G1        0.1667
      7 H1*        -1.8719   -1.7888   -0.8511 H       1    G1        0.0866
      8 C2*        -0.4074   -1.5653    0.7424 C.3     1    G1        0.1285
      9 H2*         0.6543   -1.8164    0.6615 H       1    G1        0.0665
     10 C3*        -0.6964   -0.3991    1.6690 C.3     1    G1        0.1135
     11 H3*         0.1270    0.3328    1.6629 H       1    G1        0.0647
     12 O3*        -0.9176   -0.8440    2.9964 O.3     1    G1       -0.3864
     13 O2*        -1.0779   -2.7249    1.2294 O.3     1    G1       -0.3847
     14 N9         -0.1093   -1.1117   -1.7199 N.ar    1    G1       -0.2854
     15 C8         -0.0880   -2.1722   -2.6271 C.ar    1    G1        0.1005
     16 N7          0.9701   -2.1368   -3.4111 N.ar    1    G1       -0.2286
     17 C5          1.8060   -1.2785   -2.7685 C.ar    1    G1        0.1721
     18 C6          3.1710   -0.9534   -3.0921 C.ar    1    G1        0.2803
     19 O6          3.7974   -1.4754   -4.0071 O.2     1    G1       -0.2654
     20 N1          3.6595    0.0424   -2.2389 N.ar    1    G1       -0.2934
     21 H1          4.6416    0.2877   -2.3389 H       1    G1        0.1716
     22 C2          3.0154    0.4084   -1.0252 C.ar    1    G1        0.1950
     23 N2          3.7964    1.1082   -0.1321 N.pl3   1    G1       -0.3289
     24 N3          1.7054    0.3215   -0.9140 N.ar    1    G1       -0.1963
     25 C4          1.2031   -0.6841   -1.6799 C.ar    1    G1        0.1712
     26 H5*        -3.4120    3.0985    1.2279 H       1    G1        0.2095
     27 H5*1       -2.3027    1.6274    2.6475 H       1    G1        0.0584
     28 H5*2       -1.3880    2.2843    1.2821 H       1    G1        0.0584
     29 H3*        -1.2495   -0.0947    3.5144 H       1    G1        0.2100
     30 H2*        -0.3906   -3.3199    1.5759 H       1    G1        0.2101
     31 H8         -0.9589   -2.7890   -2.8063 H       1    G1        0.1030
     32 H21         4.7781    0.8345   -0.1319 H       1    G1        0.1451
     33 H22         3.4617    1.0653    0.8288 H       1    G1        0.1451
@<TRIPOS>BOND
     1     2     1    1
     2     3     2    1
     3     3     4    1
     4     5     3    1
     5     6     5    1
     6     6     7    1
     7     8     6    1
     8     8     9    1
     9    10     8    1
    10    10    11    1
    11    10     3    1
    12    12    10    1
    13    13     8    1
    14    14     6    1
    15    15    14   ar
    16    16    15   ar
    17    17    16   ar
    18    18    17   ar
    19    19    18    2
    20    20    18   ar
    21    20    21    1
    22    22    20   ar
    23    23    22    1
    24    24    22   ar
    25    25    24   ar
    26    25    14   ar
    27    25    17   ar
    28     1    26    1
    29     2    27    1
    30     2    28    1
    31    12    29    1
    32    13    30    1
    33    15    31    1
    34    23    32    1
    35    23    33    1
