3SKZ_GMP_A_120
  1228              3D

 33 35  0  0  0  0  0  0  0  0999 V2000
   -3.4135    2.1477    1.0170 O   0  0  0  0  0  0  0  0  0  0  0  0
   -2.2107    1.6218    1.5548 C   0  0  0  0  0  0  0  0  0  0  0  0
   -1.9510    0.2109    1.0391 C   0  0  0  0  0  0  0  0  0  0  0  0
   -2.8381   -0.4348    1.1666 H   0  0  0  0  0  0  0  0  0  0  0  0
   -1.5965    0.1941   -0.3634 O   0  0  0  0  0  0  0  0  0  0  0  0
   -1.0328   -1.1280   -0.5835 C   0  0  0  0  0  0  0  0  0  0  0  0
   -1.8719   -1.7888   -0.8511 H   0  0  0  0  0  0  0  0  0  0  0  0
   -0.4074   -1.5653    0.7424 C   0  0  0  0  0  0  0  0  0  0  0  0
    0.6543   -1.8164    0.6615 H   0  0  0  0  0  0  0  0  0  0  0  0
   -0.6964   -0.3991    1.6690 C   0  0  0  0  0  0  0  0  0  0  0  0
    0.1270    0.3328    1.6629 H   0  0  0  0  0  0  0  0  0  0  0  0
   -0.9176   -0.8440    2.9964 O   0  0  0  0  0  0  0  0  0  0  0  0
   -1.0779   -2.7249    1.2294 O   0  0  0  0  0  0  0  0  0  0  0  0
   -0.1093   -1.1117   -1.7199 N   0  0  0  0  0  0  0  0  0  0  0  0
   -0.0880   -2.1722   -2.6271 C   0  0  0  0  0  0  0  0  0  0  0  0
    0.9701   -2.1368   -3.4111 N   0  0  0  0  0  0  0  0  0  0  0  0
    1.8060   -1.2785   -2.7685 C   0  0  0  0  0  0  0  0  0  0  0  0
    3.1710   -0.9534   -3.0921 C   0  0  0  0  0  0  0  0  0  0  0  0
    3.7974   -1.4754   -4.0071 O   0  0  0  0  0  0  0  0  0  0  0  0
    3.6595    0.0424   -2.2389 N   0  0  0  0  0  0  0  0  0  0  0  0
    4.6416    0.2877   -2.3389 H   0  0  0  0  0  0  0  0  0  0  0  0
    3.0154    0.4084   -1.0252 C   0  0  0  0  0  0  0  0  0  0  0  0
    3.7964    1.1082   -0.1321 N   0  0  0  0  0  0  0  0  0  0  0  0
    1.7054    0.3215   -0.9140 N   0  0  0  0  0  0  0  0  0  0  0  0
    1.2031   -0.6841   -1.6799 C   0  0  0  0  0  0  0  0  0  0  0  0
   -3.4120    3.0985    1.2279 H   0  0  0  0  0  0  0  0  0  0  0  0
   -2.3027    1.6274    2.6475 H   0  0  0  0  0  0  0  0  0  0  0  0
   -1.3880    2.2843    1.2821 H   0  0  0  0  0  0  0  0  0  0  0  0
   -1.2495   -0.0947    3.5144 H   0  0  0  0  0  0  0  0  0  0  0  0
   -0.3906   -3.3199    1.5759 H   0  0  0  0  0  0  0  0  0  0  0  0
   -0.9589   -2.7890   -2.8063 H   0  0  0  0  0  0  0  0  0  0  0  0
    4.7781    0.8345   -0.1319 H   0  0  0  0  0  0  0  0  0  0  0  0
    3.4617    1.0653    0.8288 H   0  0  0  0  0  0  0  0  0  0  0  0
  2  1  1  0  0  0  0
  3  2  1  0  0  0  0
  3  4  1  0  0  0  0
  5  3  1  0  0  0  0
  6  5  1  0  0  0  0
  6  7  1  0  0  0  0
  8  6  1  0  0  0  0
  8  9  1  0  0  0  0
 10  8  1  0  0  0  0
 10 11  1  0  0  0  0
 10  3  1  0  0  0  0
 12 10  1  0  0  0  0
 13  8  1  0  0  0  0
 14  6  1  0  0  0  0
 15 14  1  0  0  0  0
 16 15  2  0  0  0  0
 17 16  1  0  0  0  0
 18 17  1  0  0  0  0
 19 18  2  0  0  0  0
 20 18  1  0  0  0  0
 20 21  1  0  0  0  0
 22 20  1  0  0  0  0
 23 22  1  0  0  0  0
 24 22  2  0  0  0  0
 25 24  1  0  0  0  0
 25 14  1  0  0  0  0
 25 17  2  0  0  0  0
  1 26  1  0  0  0  0
  2 27  1  0  0  0  0
  2 28  1  0  0  0  0
 12 29  1  0  0  0  0
 13 30  1  0  0  0  0
 15 31  1  0  0  0  0
 23 32  1  0  0  0  0
 23 33  1  0  0  0  0
M  END
>  <energy>
71.471177606311414

$$$$
