REMARK  6 active torsions:
REMARK  status: ('A' for Active; 'I' for Inactive)
REMARK    1  A    between atoms: C5*_2  and  O5*_1 
REMARK    2  A    between atoms: C4*_3  and  C5*_2 
REMARK    3  A    between atoms: N9_10  and  C1*_5 
REMARK    4  A    between atoms: O2*_9  and  C2*_6 
REMARK    5  A    between atoms: O3*_8  and  C3*_7 
REMARK    6  A    between atoms: N2_19  and  C2_18 
ROOT
ATOM      1  N9   G1 d          -0.109  -1.112  -1.720  0.00  0.00    -0.294 N 
ATOM      2  C8   G1 d          -0.088  -2.172  -2.627  0.00  0.00     0.214 C 
ATOM      3  N7   G1 d           0.970  -2.137  -3.411  0.00  0.00    -0.234 NA
ATOM      4  C5   G1 d           1.806  -1.278  -2.768  0.00  0.00     0.172 C 
ATOM      5  C6   G1 d           3.171  -0.953  -3.092  0.00  0.00     0.280 C 
ATOM      6  O6   G1 d           3.797  -1.475  -4.007  0.00  0.00    -0.265 OA
ATOM      7  N1   G1 d           3.659   0.042  -2.239  0.00  0.00    -0.296 N 
ATOM      8  H1   G1 d           4.642   0.288  -2.339  0.00  0.00     0.171 HD
ATOM      9  C2   G1 d           3.015   0.408  -1.025  0.00  0.00     0.181 C 
ATOM     10  N3   G1 d           1.705   0.322  -0.914  0.00  0.00    -0.200 NA
ATOM     11  C4   G1 d           1.203  -0.684  -1.680  0.00  0.00     0.171 C 
ENDROOT
BRANCH   1  12
ATOM     12  C1*  G1 d          -1.033  -1.128  -0.584  0.00  0.00     0.262 C 
ATOM     13  O4*  G1 d          -1.597   0.194  -0.363  0.00  0.00    -0.353 OA
ATOM     14  C4*  G1 d          -1.951   0.211   1.039  0.00  0.00     0.179 C 
ATOM     15  C3*  G1 d          -0.696  -0.399   1.669  0.00  0.00     0.182 C 
ATOM     16  C2*  G1 d          -0.407  -1.565   0.742  0.00  0.00     0.198 C 
BRANCH  14  17
ATOM     17  C5*  G1 d          -2.211   1.622   1.555  0.00  0.00     0.198 C 
BRANCH  17  18
ATOM     18  O5*  G1 d          -3.413   2.148   1.017  0.00  0.00    -0.398 OA
ATOM     19  H5*  G1 d          -3.412   3.099   1.228  0.00  0.00     0.209 HD
ENDBRANCH  17  18
ENDBRANCH  14  17
BRANCH  15  20
ATOM     20  O3*  G1 d          -0.918  -0.844   2.996  0.00  0.00    -0.390 OA
ATOM     21  H3*  G1 d          -1.250  -0.095   3.514  0.00  0.00     0.210 HD
ENDBRANCH  15  20
BRANCH  16  22
ATOM     22  O2*  G1 d          -1.078  -2.725   1.229  0.00  0.00    -0.388 OA
ATOM     23  H2*  G1 d          -0.391  -3.320   1.576  0.00  0.00     0.210 HD
ENDBRANCH  16  22
ENDBRANCH   1  12
BRANCH   9  24
ATOM     24  N2   G1 d           3.796   1.108  -0.132  0.00  0.00    -0.272 NA
ATOM     25  H21  G1 d           4.778   0.835  -0.132  0.00  0.00     0.127 HD
ATOM     26  H22  G1 d           3.462   1.065   0.829  0.00  0.00     0.127 HD
ENDBRANCH   9  24
TORSDOF 6
