REMARK  13 active torsions:
REMARK  status: ('A' for Active; 'I' for Inactive)
REMARK    1  A    between atoms: C_2  and  N_3 
REMARK    2  A    between atoms: N_9  and  C_34 
REMARK    3  A    between atoms: C_10  and  C_14 
REMARK    4  A    between atoms: C_14  and  N_15 
REMARK    5  A    between atoms: N_15  and  C_16 
REMARK    6  A    between atoms: C_19  and  C_22 
REMARK       I    between atoms: C_22  and  N_24 
REMARK    7  A    between atoms: N_24  and  CA_25 
REMARK    8  A    between atoms: CA_25  and  CB_26 
REMARK    9  A    between atoms: CA_25  and  C_31 
REMARK   10  A    between atoms: CB_26  and  CG_27 
REMARK   11  A    between atoms: CG_27  and  CD_28 
REMARK   12  A    between atoms: CD_28  and  OE2_30 
REMARK   13  A    between atoms: C_31  and  OXT_33 
ROOT
ATOM      1  C   UNK d   0      -3.304   1.356  -4.057  0.00  0.00     0.028 A 
ATOM      2  C   UNK d   0      -3.901   2.385  -4.788  0.00  0.00     0.030 A 
ATOM      3  C   UNK d   0      -4.293   2.197  -6.111  0.00  0.00     0.019 A 
ATOM      4  C   UNK d   0      -4.114   0.958  -6.728  0.00  0.00     0.032 A 
ATOM      5  C   UNK d   0      -3.475  -0.071  -6.028  0.00  0.00     0.019 A 
ATOM      6  C   UNK d   0      -3.075   0.135  -4.701  0.00  0.00     0.030 A 
ENDROOT
BRANCH   1   7
ATOM      7  N   UNK d   0      -3.038   1.474  -2.708  0.00  0.00    -0.388 N 
ATOM      8  H   UNK d   0      -2.206   1.026  -2.340  0.00  0.00     0.159 HD
BRANCH   7   9
ATOM      9  C   UNK d   0      -3.803   2.342  -1.824  0.00  0.00     0.147 C 
BRANCH   9  10
ATOM     10  C   UNK d   0      -2.942   3.465  -1.191  0.00  0.00     0.128 C 
ATOM     11  N   UNK d   0      -1.879   2.904  -0.310  0.00  0.00    -0.309 N 
ATOM     12  C   UNK d   0      -2.299   2.410   0.941  0.00  0.00     0.153 A 
ATOM     13  C   UNK d   0      -1.494   1.427   1.731  0.00  0.00     0.290 A 
ATOM     14  C   UNK d   0      -3.513   2.738   1.460  0.00  0.00     0.175 A 
ATOM     15  N   UNK d   0      -2.061   0.990   2.884  0.00  0.00    -0.153 N 
ATOM     16  O   UNK d   0      -0.416   0.972   1.363  0.00  0.00    -0.265 OA
ATOM     17  C   UNK d   0      -3.312   1.340   3.265  0.00  0.00     0.703 A 
ATOM     18  H   UNK d   0      -1.559   0.272   3.381  0.00  0.00     0.187 HD
ATOM     19  N   UNK d   0      -4.021   2.199   2.615  0.00  0.00    -0.045 NA
ATOM     20  N   UNK d   0      -4.325   3.636   0.783  0.00  0.00    -0.370 N 
ATOM     21  C   UNK d   0      -3.854   4.390  -0.363  0.00  0.00     0.148 C 
ATOM     22  H   UNK d   0      -5.138   3.942   1.306  0.00  0.00     0.161 HD
BRANCH  11  23
ATOM     23  C   UNK d   0      -0.587   2.859  -0.802  0.00  0.00     0.356 C 
ATOM     24  O   UNK d   0      -0.242   3.242  -1.917  0.00  0.00    -0.283 OA
ENDBRANCH  11  23
BRANCH  17  25
ATOM     25  N   UNK d   0      -3.800   0.739   4.374  0.00  0.00    -0.233 N 
ATOM     26  H   UNK d   0      -4.646   1.176   4.721  0.00  0.00     0.174 HD
ATOM     27  H   UNK d   0      -3.150   0.468   5.098  0.00  0.00     0.174 HD
ENDBRANCH  17  25
ENDBRANCH   9  10
ENDBRANCH   7   9
ENDBRANCH   1   7
BRANCH   4  28
ATOM     28  C   UNK d   0      -4.642   0.809  -8.107  0.00  0.00     0.252 C 
ATOM     29  O   UNK d   0      -4.843   1.798  -8.804  0.00  0.00    -0.268 OA
ATOM     30  N   GLU d   1      -4.936  -0.466  -8.529  0.00  0.00    -0.343 N 
ATOM     31  H   GLU d   1      -4.893  -1.242  -7.876  0.00  0.00     0.163 HD
BRANCH  30  32
ATOM     32  CA  GLU d   1      -5.557  -0.715  -9.830  0.00  0.00     0.183 C 
BRANCH  32  33
ATOM     33  CB  GLU d   1      -4.589  -0.368 -10.976  0.00  0.00     0.046 C 
BRANCH  33  34
ATOM     34  CG  GLU d   1      -5.131  -0.636 -12.373  0.00  0.00     0.112 C 
BRANCH  34  35
ATOM     35  CD  GLU d   1      -6.390   0.152 -12.614  0.00  0.00     0.139 C 
ATOM     36  OE1 GLU d   1      -7.489  -0.241 -12.248  0.00  0.00    -0.650 OA
BRANCH  35  37
ATOM     37  OE2 GLU d   1      -6.185   1.357 -13.190  0.00  0.00    -0.776 OA
ATOM     38  HE2 GLU d   1      -5.244   1.580 -13.340  0.00  0.00     0.167 HD
ENDBRANCH  35  37
ENDBRANCH  34  35
ENDBRANCH  33  34
ENDBRANCH  32  33
BRANCH  32  39
ATOM     39  C   GLU d   1      -5.936  -2.200  -9.864  0.00  0.00     0.163 C 
ATOM     40  O   GLU d   1      -5.154  -3.100  -9.581  0.00  0.00    -0.648 OA
BRANCH  39  41
ATOM     41  OXT GLU d   1      -7.220  -2.444 -10.203  0.00  0.00    -0.775 OA
ATOM     42  HXT GLU d   1      -7.744  -1.651 -10.454  0.00  0.00     0.167 HD
ENDBRANCH  39  41
ENDBRANCH  32  39
ENDBRANCH  30  32
ENDBRANCH   4  28
TORSDOF 13
