@<TRIPOS>MOLECULE
3SUH_FFO_X_103
 57 59 0 0 0
SMALL
GASTEIGER

@<TRIPOS>ATOM
      1 N          -4.0209    2.1993    2.6153 N.ar    0  UNK0       -0.1994
      2 C          -3.3125    1.3396    3.2647 C.ar    0  UNK0        0.1948
      3 N          -3.7995    0.7386    4.3741 N.pl3   0  UNK0       -0.3289
      4 N          -2.0605    0.9901    2.8841 N.ar    0  UNK0       -0.2937
      5 H          -1.5590    0.2719    3.3807 H       0  UNK0        0.1716
      6 C          -1.4938    1.4271    1.7311 C.ar    0  UNK0        0.2761
      7 O          -0.4164    0.9715    1.3630 O.2     0  UNK0       -0.2657
      8 C          -2.2986    2.4097    0.9407 C.ar    0  UNK0        0.1416
      9 N          -1.8787    2.9041   -0.3105 N.am    0  UNK0       -0.2607
     10 C          -2.9421    3.4648   -1.1914 C.3     0  UNK0        0.0619
     11 H          -2.4840    4.0539   -1.9942 H       0  UNK0        0.0535
     12 C          -3.8542    4.3898   -0.3626 C.3     0  UNK0        0.0310
     13 N          -4.3247    3.6363    0.7831 N.pl3   0  UNK0       -0.3255
     14 C          -3.5125    2.7381    1.4599 C.ar    0  UNK0        0.1493
     15 C          -3.8029    2.3419   -1.8237 C.3     0  UNK0        0.0296
     16 N          -3.0384    1.4736   -2.7084 N.pl3   0  UNK0       -0.3420
     17 C          -3.3035    1.3561   -4.0567 C.ar    0  UNK0        0.0272
     18 C          -3.9007    2.3852   -4.7885 C.ar    0  UNK0       -0.0401
     19 C          -4.2931    2.1970   -6.1114 C.ar    0  UNK0       -0.0479
     20 C          -4.1137    0.9578   -6.7276 C.ar    0  UNK0        0.0368
     21 C          -3.4749   -0.0706   -6.0280 C.ar    0  UNK0       -0.0479
     22 C          -3.0747    0.1352   -4.7007 C.ar    0  UNK0       -0.0401
     23 C          -4.6418    0.8087   -8.1074 C.2     0  UNK0        0.2447
     24 O          -4.8429    1.7980   -8.8042 O.2     0  UNK0       -0.2702
     25 N          -4.9364   -0.4662   -8.5287 N.am    1  GLU1       -0.2983
     26 CA         -5.5574   -0.7154   -9.8297 C.3     1  GLU1        0.1209
     27 HA         -6.4599   -0.0959   -9.8659 H       1  GLU1        0.0614
     28 CB         -4.5893   -0.3679  -10.9758 C.3     1  GLU1       -0.0140
     29 CG         -5.1315   -0.6361  -12.3734 C.3     1  GLU1        0.0470
     30 CD         -6.3902    0.1519  -12.6139 C.2     1  GLU1        0.3048
     31 OE1        -7.4894   -0.2407  -12.2480 O.2     1  GLU1       -0.2510
     32 OE2        -6.1854    1.3573  -13.1899 O.3     1  GLU1       -0.4806
     33 C          -5.9365   -2.2003   -9.8643 C.2     1  GLU1        0.3253
     34 O          -5.1538   -3.0999   -9.5807 O.2     1  GLU1       -0.2489
     35 OXT        -7.2200   -2.4443  -10.2026 O.3     1  GLU1       -0.4793
     36 C          -0.5871    2.8594   -0.8025 C.2     0  UNK0        0.2073
     37 O          -0.2418    3.2417   -1.9170 O.2     0  UNK0       -0.2790
     38 H          -4.6461    1.1760    4.7207 H       0  UNK0        0.1451
     39 H          -3.1497    0.4679    5.0980 H       0  UNK0        0.1451
     40 H          -4.7011    4.7519   -0.9548 H       0  UNK0        0.0480
     41 H          -3.2894    5.2637   -0.0163 H       0  UNK0        0.0480
     42 H          -5.1379    3.9417    1.3056 H       0  UNK0        0.1476
     43 H          -4.2360    1.6976   -1.0499 H       0  UNK0        0.0480
     44 H          -4.6676    2.7858   -2.3313 H       0  UNK0        0.0480
     45 H          -2.2059    1.0261   -2.3396 H       0  UNK0        0.1461
     46 H          -4.0577    3.3631   -4.3446 H       0  UNK0        0.0636
     47 H          -4.7572    3.0205   -6.6487 H       0  UNK0        0.0626
     48 H          -3.2776   -1.0351   -6.4859 H       0  UNK0        0.0626
     49 H          -2.6183   -0.6870   -4.1532 H       0  UNK0        0.0636
     50 H          -4.8931   -1.2417   -7.8763 H       1  GLU1        0.1498
     51 HB1        -3.6549   -0.9285  -10.8480 H       1  GLU1        0.0294
     52 HB2        -4.3157    0.6924  -10.9177 H       1  GLU1        0.0294
     53 HG1        -5.3576   -1.6974  -12.5227 H       1  GLU1        0.0378
     54 HG2        -4.3813   -0.3800  -13.1299 H       1  GLU1        0.0378
     55 HE2        -5.2441    1.5796  -13.3398 H       1  GLU1        0.2951
     56 HXT        -7.7435   -1.6514  -10.4544 H       1  GLU1        0.2951
     57 H           0.1667    2.5009   -0.0936 H       0  UNK0        0.1257
@<TRIPOS>BOND
     1     1     2   ar
     2     1    14   ar
     3     2     3    1
     4     2     4   ar
     5     3    38    1
     6     3    39    1
     7     4     5    1
     8     4     6   ar
     9     6     7    2
    10     6     8   ar
    11     8     9    1
    12     8    14   ar
    13     9    10    1
    14     9    36   am
    15    10    12    1
    16    10    15    1
    17    10    11    1
    18    12    13    1
    19    12    40    1
    20    12    41    1
    21    13    14    1
    22    13    42    1
    23    15    16    1
    24    15    43    1
    25    15    44    1
    26    16    17    1
    27    16    45    1
    28    17    18   ar
    29    17    22   ar
    30    18    19   ar
    31    18    46    1
    32    19    20   ar
    33    19    47    1
    34    20    21   ar
    35    20    23    1
    36    21    22   ar
    37    21    48    1
    38    22    49    1
    39    23    24    2
    40    23    25   am
    41    25    26    1
    42    25    50    1
    43    26    27    1
    44    26    28    1
    45    26    33    1
    46    28    29    1
    47    28    51    1
    48    28    52    1
    49    29    30    1
    50    29    53    1
    51    29    54    1
    52    30    31    2
    53    30    32    1
    54    32    55    1
    55    33    34    2
    56    33    35    1
    57    35    56    1
    58    36    37    2
    59    36    57    1
