3SUH_FFO_X_103
 OpenBabel03221817313D

 57 59  0  0  1  0  0  0  0  0999 V2000
   -4.0209    2.1993    2.6153 N   0  0  0  0  0  0  0  0  0  0  0  0
   -3.3125    1.3396    3.2647 C   0  0  0  0  0  0  0  0  0  0  0  0
   -3.7995    0.7386    4.3741 N   0  0  0  0  0  0  0  0  0  0  0  0
   -2.0605    0.9901    2.8841 N   0  0  0  0  0  0  0  0  0  0  0  0
   -1.5590    0.2719    3.3807 H   0  0  0  0  0  0  0  0  0  0  0  0
   -1.4938    1.4271    1.7311 C   0  0  0  0  0  0  0  0  0  0  0  0
   -0.4164    0.9715    1.3630 O   0  0  0  0  0  0  0  0  0  0  0  0
   -2.2986    2.4097    0.9407 C   0  0  0  0  0  0  0  0  0  0  0  0
   -1.8787    2.9041   -0.3105 N   0  0  0  0  0  0  0  0  0  0  0  0
   -2.9421    3.4648   -1.1914 C   0  0  2  0  0  0  0  0  0  0  0  0
   -2.4840    4.0539   -1.9942 H   0  0  0  0  0  0  0  0  0  0  0  0
   -3.8542    4.3898   -0.3626 C   0  0  0  0  0  0  0  0  0  0  0  0
   -4.3247    3.6363    0.7831 N   0  0  0  0  0  0  0  0  0  0  0  0
   -3.5125    2.7381    1.4599 C   0  0  0  0  0  0  0  0  0  0  0  0
   -3.8029    2.3419   -1.8237 C   0  0  0  0  0  0  0  0  0  0  0  0
   -3.0384    1.4736   -2.7084 N   0  0  0  0  0  0  0  0  0  0  0  0
   -3.3035    1.3561   -4.0567 C   0  0  0  0  0  0  0  0  0  0  0  0
   -3.9007    2.3852   -4.7885 C   0  0  0  0  0  0  0  0  0  0  0  0
   -4.2931    2.1970   -6.1114 C   0  0  0  0  0  0  0  0  0  0  0  0
   -4.1137    0.9578   -6.7276 C   0  0  0  0  0  0  0  0  0  0  0  0
   -3.4749   -0.0706   -6.0280 C   0  0  0  0  0  0  0  0  0  0  0  0
   -3.0747    0.1352   -4.7007 C   0  0  0  0  0  0  0  0  0  0  0  0
   -4.6418    0.8087   -8.1074 C   0  0  0  0  0  0  0  0  0  0  0  0
   -4.8429    1.7980   -8.8042 O   0  0  0  0  0  0  0  0  0  0  0  0
   -4.9364   -0.4662   -8.5287 N   0  0  0  0  0  0  0  0  0  0  0  0
   -5.5574   -0.7154   -9.8297 C   0  0  1  0  0  0  0  0  0  0  0  0
   -6.4599   -0.0959   -9.8659 H   0  0  0  0  0  0  0  0  0  0  0  0
   -4.5893   -0.3679  -10.9758 C   0  0  0  0  0  0  0  0  0  0  0  0
   -5.1315   -0.6361  -12.3734 C   0  0  0  0  0  0  0  0  0  0  0  0
   -6.3902    0.1519  -12.6139 C   0  0  0  0  0  0  0  0  0  0  0  0
   -7.4894   -0.2407  -12.2480 O   0  0  0  0  0  0  0  0  0  0  0  0
   -6.1854    1.3573  -13.1899 O   0  0  0  0  0  0  0  0  0  0  0  0
   -5.9365   -2.2003   -9.8643 C   0  0  0  0  0  0  0  0  0  0  0  0
   -5.1538   -3.0999   -9.5807 O   0  0  0  0  0  0  0  0  0  0  0  0
   -7.2200   -2.4443  -10.2026 O   0  0  0  0  0  0  0  0  0  0  0  0
   -0.5871    2.8594   -0.8025 C   0  0  0  0  0  0  0  0  0  0  0  0
   -0.2418    3.2417   -1.9170 O   0  0  0  0  0  0  0  0  0  0  0  0
   -4.6461    1.1760    4.7207 H   0  0  0  0  0  0  0  0  0  0  0  0
   -3.1497    0.4679    5.0980 H   0  0  0  0  0  0  0  0  0  0  0  0
   -4.7011    4.7519   -0.9548 H   0  0  0  0  0  0  0  0  0  0  0  0
   -3.2894    5.2637   -0.0163 H   0  0  0  0  0  0  0  0  0  0  0  0
   -5.1379    3.9417    1.3056 H   0  0  0  0  0  0  0  0  0  0  0  0
   -4.2360    1.6976   -1.0499 H   0  0  0  0  0  0  0  0  0  0  0  0
   -4.6676    2.7858   -2.3313 H   0  0  0  0  0  0  0  0  0  0  0  0
   -2.2059    1.0261   -2.3396 H   0  0  0  0  0  0  0  0  0  0  0  0
   -4.0577    3.3631   -4.3446 H   0  0  0  0  0  0  0  0  0  0  0  0
   -4.7572    3.0205   -6.6487 H   0  0  0  0  0  0  0  0  0  0  0  0
   -3.2776   -1.0351   -6.4859 H   0  0  0  0  0  0  0  0  0  0  0  0
   -2.6183   -0.6870   -4.1532 H   0  0  0  0  0  0  0  0  0  0  0  0
   -4.8931   -1.2417   -7.8763 H   0  0  0  0  0  0  0  0  0  0  0  0
   -3.6549   -0.9285  -10.8480 H   0  0  0  0  0  0  0  0  0  0  0  0
   -4.3157    0.6924  -10.9177 H   0  0  0  0  0  0  0  0  0  0  0  0
   -5.3576   -1.6974  -12.5227 H   0  0  0  0  0  0  0  0  0  0  0  0
   -4.3813   -0.3800  -13.1299 H   0  0  0  0  0  0  0  0  0  0  0  0
   -5.2441    1.5796  -13.3398 H   0  0  0  0  0  0  0  0  0  0  0  0
   -7.7435   -1.6514  -10.4544 H   0  0  0  0  0  0  0  0  0  0  0  0
    0.1667    2.5009   -0.0936 H   0  0  0  0  0  0  0  0  0  0  0  0
  1  2  2  0  0  0  0
  1 14  1  0  0  0  0
  2  3  1  0  0  0  0
  2  4  1  0  0  0  0
  3 38  1  0  0  0  0
  3 39  1  0  0  0  0
  4  5  1  0  0  0  0
  4  6  1  0  0  0  0
  6  7  2  0  0  0  0
  6  8  1  0  0  0  0
  8  9  1  0  0  0  0
  8 14  2  0  0  0  0
  9 10  1  0  0  0  0
  9 36  1  0  0  0  0
 10 12  1  0  0  0  0
 10 15  1  0  0  0  0
 10 11  1  6  0  0  0
 12 13  1  0  0  0  0
 12 40  1  0  0  0  0
 12 41  1  0  0  0  0
 13 14  1  0  0  0  0
 13 42  1  0  0  0  0
 15 16  1  0  0  0  0
 15 43  1  0  0  0  0
 15 44  1  0  0  0  0
 16 17  1  0  0  0  0
 16 45  1  0  0  0  0
 17 18  2  0  0  0  0
 17 22  1  0  0  0  0
 18 19  1  0  0  0  0
 18 46  1  0  0  0  0
 19 20  2  0  0  0  0
 19 47  1  0  0  0  0
 20 21  1  0  0  0  0
 20 23  1  0  0  0  0
 21 22  2  0  0  0  0
 21 48  1  0  0  0  0
 22 49  1  0  0  0  0
 23 24  2  0  0  0  0
 23 25  1  0  0  0  0
 25 26  1  0  0  0  0
 25 50  1  0  0  0  0
 26 27  1  6  0  0  0
 26 28  1  0  0  0  0
 26 33  1  0  0  0  0
 28 29  1  0  0  0  0
 28 51  1  0  0  0  0
 28 52  1  0  0  0  0
 29 30  1  0  0  0  0
 29 53  1  0  0  0  0
 29 54  1  0  0  0  0
 30 31  2  0  0  0  0
 30 32  1  0  0  0  0
 32 55  1  0  0  0  0
 33 34  2  0  0  0  0
 33 35  1  0  0  0  0
 35 56  1  0  0  0  0
 36 37  2  0  0  0  0
 36 57  1  0  0  0  0
M  END
$$$$
