3DIQ_HRG_A_175
 OpenBabel10091713573D
Coordinates from PDB:3DIQ:A:175 Model:1 without hydrogens
 13 12  0  0  0  0  0  0  0  0999 V2000
   32.4020   16.1530   19.4800 N   0  0  0  0  0  0  0  0  0  0  0  0
   31.6680   16.9190   20.5280 C   0  0  1  0  0  0  0  0  0  0  0  0
   30.5730   16.0890   21.1860 C   0  0  0  0  0  0  0  0  0  0  0  0
   28.1590   15.5810   20.7260 C   0  0  0  0  0  0  0  0  0  0  0  0
   29.5730   15.5250   20.1920 C   0  0  0  0  0  0  0  0  0  0  0  0
   27.1540   15.6630   19.5900 C   0  0  0  0  0  0  0  0  0  0  0  0
   27.1100   14.4380   18.7860 N   0  0  0  0  0  0  0  0  0  0  0  0
   27.5490   14.3180   17.5340 C   0  0  0  0  0  0  0  0  0  0  0  0
   28.0920   15.3550   16.9050 N   0  0  0  0  0  0  0  0  0  0  0  0
   27.4400   13.1610   16.9030 N   0  0  0  0  0  0  0  0  0  0  0  0
   32.6610   17.4560   21.5520 C   0  0  0  0  0  0  0  0  0  0  0  0
   33.8750   17.3740   21.3470 O   0  0  0  0  0  0  0  0  0  0  0  0
   32.2960   18.0060   22.5930 O   0  0  0  0  0  0  0  0  0  0  0  0
  2  1  1  6  0  0  0
  2  3  1  0  0  0  0
  2 11  1  0  0  0  0
  3  5  1  0  0  0  0
  4  5  1  0  0  0  0
  4  6  1  0  0  0  0
  6  7  1  0  0  0  0
  7  8  1  0  0  0  0
  8  9  2  0  0  0  0
  8 10  1  0  0  0  0
 11 12  2  0  0  0  0
 11 13  1  0  0  0  0
A    1
N
A    2
CA
A    3
CB
A    4
CG
A    5
CG'
A    6
CD
A    7
NE
A    8
CZ
A    9
NH1
A   10
NH2
A   11
C
A   12
O
A   13
OXT
M  END
>  <InstanceId>
3DIQ_HRG_A_175

>  <ChemCompId>
HRG

>  <PdbId>
3DIQ

>  <ChainId>
A

>  <ResidueNumber>
175

>  <InsertionCode>


>  <Model>
1

>  <AltIds>


>  <MissingHeavyAtoms>
0

>  <ObservedFormula>
C7 N4 O2

>  <Name>
L-HOMOARGININE

>  <SystematicName>
(2S)-2-amino-6-carbamimidamido-hexanoic acid

>  <Synonyms>


>  <Type>
L-PEPTIDE LINKING

>  <Formula>
C7 H16 N4 O2

>  <MolecularWeight>
188.228

>  <ModifiedDate>
2011-06-04

>  <Parent>
ARG

>  <OneLetterCode>
R

>  <SubcomponentList>


>  <AmbiguousFlag>
N

>  <InChI>
InChI=1S/C7H16N4O2/c8-5(6(12)13)3-1-2-4-11-7(9)10/h5H,1-4,8H2,(H,12,13)(H4,9,10,11)/t5-/m0/s1

>  <InChIKey>
QUOGESRFPZDMMT-YFKPBYRVSA-N

>  <SMILES>
C(CCNC(=N)N)C[C@@H](C(=O)O)N

$$$$
