3DIQ_HRG_A_175
 OpenBabel10091713573D
Coordinates from PDB:3DIQ:A:175 Model:1 without hydrogens
 29 28  0  0  1  0  0  0  0  0999 V2000
   32.4020   16.1530   19.4800 N   0  0  0  0  0  0  0  0  0  0  0  0
   31.6680   16.9190   20.5280 C   0  0  1  0  0  0  0  0  0  0  0  0
   30.5730   16.0890   21.1860 C   0  0  0  0  0  0  0  0  0  0  0  0
   28.1590   15.5810   20.7260 C   0  0  0  0  0  0  0  0  0  0  0  0
   29.5730   15.5250   20.1920 C   0  0  0  0  0  0  0  0  0  0  0  0
   27.1540   15.6630   19.5900 C   0  0  0  0  0  0  0  0  0  0  0  0
   27.1100   14.4380   18.7860 N   0  0  0  0  0  0  0  0  0  0  0  0
   27.5490   14.3180   17.5340 C   0  0  0  0  0  0  0  0  0  0  0  0
   28.0920   15.3550   16.9050 N   0  0  0  0  0  0  0  0  0  0  0  0
   27.4400   13.1610   16.9030 N   0  0  0  0  0  0  0  0  0  0  0  0
   32.6610   17.4560   21.5520 C   0  0  0  0  0  0  0  0  0  0  0  0
   33.8750   17.3740   21.3470 O   0  0  0  0  0  0  0  0  0  0  0  0
   32.2960   18.0060   22.5930 O   0  0  0  0  0  0  0  0  0  0  0  0
   31.7382   15.7932   18.7942 H   0  0  0  0  0  0  0  0  0  0  0  0
   32.8988   15.3746   19.9131 H   0  0  0  0  0  0  0  0  0  0  0  0
   31.1719   17.7434   20.0599 H   0  0  0  0  0  0  0  0  0  0  0  0
   30.0480   16.7090   21.8824 H   0  0  0  0  0  0  0  0  0  0  0  0
   31.0475   15.2589   21.6663 H   0  0  0  0  0  0  0  0  0  0  0  0
   28.0539   16.4440   21.3498 H   0  0  0  0  0  0  0  0  0  0  0  0
   27.9695   14.6896   21.2867 H   0  0  0  0  0  0  0  0  0  0  0  0
   29.8257   14.5058   19.9867 H   0  0  0  0  0  0  0  0  0  0  0  0
   29.6168   16.1183   19.3026 H   0  0  0  0  0  0  0  0  0  0  0  0
   27.4218   16.4808   18.9540 H   0  0  0  0  0  0  0  0  0  0  0  0
   26.1856   15.8007   20.0237 H   0  0  0  0  0  0  0  0  0  0  0  0
   26.7234   13.6363   19.2068 H   0  0  0  0  0  0  0  0  0  0  0  0
   28.1776   16.2206   17.3661 H   0  0  0  0  0  0  0  0  0  0  0  0
   27.0392   12.3868   17.3603 H   0  0  0  0  0  0  0  0  0  0  0  0
   27.7597   13.0739   15.9759 H   0  0  0  0  0  0  0  0  0  0  0  0
   31.3824   18.0876   22.7843 H   0  0  0  0  0  0  0  0  0  0  0  0
  1  2  1  0  0  0  0
  1 14  1  0  0  0  0
  1 15  1  0  0  0  0
  2  3  1  0  0  0  0
  2 11  1  0  0  0  0
  2 16  1  6  0  0  0
  3  5  1  0  0  0  0
  3 17  1  0  0  0  0
  3 18  1  0  0  0  0
  4  5  1  0  0  0  0
  4  6  1  0  0  0  0
  4 19  1  0  0  0  0
  4 20  1  0  0  0  0
  5 21  1  0  0  0  0
  5 22  1  0  0  0  0
  6  7  1  0  0  0  0
  6 23  1  0  0  0  0
  6 24  1  0  0  0  0
  7  8  1  0  0  0  0
  7 25  1  0  0  0  0
  8  9  2  0  0  0  0
  8 10  1  0  0  0  0
  9 26  1  0  0  0  0
 10 27  1  0  0  0  0
 10 28  1  0  0  0  0
 11 12  2  0  0  0  0
 11 13  1  0  0  0  0
 13 29  1  0  0  0  0
M  END
$$$$
