@<TRIPOS>MOLECULE
3DIQ_HRG_A_175
 13 12 0 0 0
SMALL
GASTEIGER
****
Coordinates from PDB:3DIQ:A:175 Model:1 without hydrogens
@<TRIPOS>ATOM
      1 N1         32.4020   16.1530   19.4800 N.3     1  <1>        -0.1208
      2 C1         31.6680   16.9190   20.5280 C.3     1  <1>         0.1943
      3 C2         30.5730   16.0890   21.1860 C.3     1  <1>         0.0307
      4 C3         28.1590   15.5810   20.7260 C.3     1  <1>         0.0470
      5 C4         29.5730   15.5250   20.1920 C.3     1  <1>         0.0058
      6 C5         27.1540   15.6630   19.5900 C.3     1  <1>         0.2204
      7 N2         27.1100   14.4380   18.7860 N.pl3   1  <1>        -0.0865
      8 C6         27.5490   14.3180   17.5340 C.cat   1  <1>         0.5346
      9 N3         28.0920   15.3550   16.9050 N.pl3   1  <1>         0.1354
     10 N4         27.4400   13.1610   16.9030 N.pl3   1  <1>         0.1354
     11 C7         32.6610   17.4560   21.5520 C.2     1  <1>         0.3819
     12 O1         33.8750   17.3740   21.3470 O.co2   1  <1>        -0.2441
     13 O2         32.2960   18.0060   22.5930 O.co2   1  <1>        -0.2441
@<TRIPOS>BOND
     1     2     1    1
     2     2     3    1
     3     2    11    1
     4     3     5    1
     5     4     5    1
     6     4     6    1
     7     6     7    1
     8     7     8    1
     9     8     9    2
    10     8    10    1
    11    11    12   ar
    12    11    13   ar
