@<TRIPOS>MOLECULE
ligand.pdb
 24 23 0 0 0
SMALL
GASTEIGER

@<TRIPOS>ATOM
      1 N          -2.7112    0.9184   -1.3123 N.3     1  LYS1       -0.3184
      2 CA         -2.0224    0.1419   -0.2791 C.3     1  LYS1        0.1032
      3 HA         -1.4638    0.8268    0.3702 H       1  LYS1        0.0574
      4 C          -1.0346   -0.7691   -0.9834 C.2     1  LYS1        0.3217
      5 O          -1.1238   -1.9844   -1.0841 O.2     1  LYS1       -0.2493
      6 OXT        -0.0007   -0.0501   -1.4960 O.3     1  LYS1       -0.4795
      7 CB         -3.0618   -0.6315    0.5422 C.3     1  LYS1       -0.0273
      8 CG         -2.4802   -1.1647    1.8577 C.3     1  LYS1       -0.0500
      9 CD         -3.4963   -2.0197    2.6318 C.3     1  LYS1       -0.0406
     10 CE         -4.0222   -1.3477    3.9008 C.3     1  LYS1       -0.0069
     11 NZ         -4.9103   -0.2358    3.5834 N.3     1  LYS1       -0.3300
     12 H1         -2.9796    0.3154   -2.0888 H       1  LYS1        0.1190
     13 H2         -2.0689    1.6067   -1.7030 H       1  LYS1        0.1190
     14 HXT         0.6578   -0.6228   -1.9409 H       1  LYS1        0.2951
     15 HB1        -3.4776   -1.4597   -0.0459 H       1  LYS1        0.0286
     16 HB2        -3.9033    0.0311    0.7819 H       1  LYS1        0.0286
     17 HG1        -1.5980   -1.7804    1.6467 H       1  LYS1        0.0266
     18 HG2        -2.1333   -0.3241    2.4706 H       1  LYS1        0.0266
     19 HD1        -4.3354   -2.3164    1.9897 H       1  LYS1        0.0277
     20 HD2        -3.0032   -2.9563    2.9248 H       1  LYS1        0.0277
     21 HE1        -4.5714   -2.0849    4.4974 H       1  LYS1        0.0422
     22 HE2        -3.1903   -0.9919    4.5183 H       1  LYS1        0.0422
     23 HZ1        -5.8038   -0.5992    3.2542 H       1  LYS1        0.1182
     24 HZ2        -5.1159    0.2821    4.4369 H       1  LYS1        0.1182
@<TRIPOS>BOND
     1     2     1    1
     2     2     3    1
     3     4     2    1
     4     5     4    2
     5     6     4    1
     6     7     2    1
     7     8     7    1
     8     9     8    1
     9    10     9    1
    10    11    10    1
    11     1    12    1
    12     1    13    1
    13     6    14    1
    14     7    15    1
    15     7    16    1
    16     8    17    1
    17     8    18    1
    18     9    19    1
    19     9    20    1
    20    10    21    1
    21    10    22    1
    22    11    23    1
    23    11    24    1
