REMARK  27 active torsions:
REMARK  status: ('A' for Active; 'I' for Inactive)
REMARK    1  A    between atoms: C_1  and  O_2 
REMARK    2  A    between atoms: C_3  and  O_2 
REMARK    3  A    between atoms: C_4  and  N_42 
REMARK    4  A    between atoms: C_6  and  N_7 
REMARK    5  A    between atoms: C_8  and  O_41 
REMARK    6  A    between atoms: C_9  and  O_10 
REMARK    7  A    between atoms: C_11  and  O_10 
REMARK    8  A    between atoms: C_13  and  C_39 
REMARK    9  A    between atoms: C_14  and  O_27 
REMARK   10  A    between atoms: C_15  and  O_16 
REMARK   11  A    between atoms: O_16  and  C_17 
REMARK   12  A    between atoms: C_17  and  C_18 
REMARK   13  A    between atoms: C_18  and  N_19 
REMARK   14  A    between atoms: N_19  and  C_20 
REMARK   15  A    between atoms: C_21  and  C_20 
REMARK   16  A    between atoms: C_28  and  O_27 
REMARK   17  A    between atoms: C_29  and  N_30 
REMARK   18  A    between atoms: C_31  and  O_32 
REMARK   19  A    between atoms: C_33  and  O_34 
REMARK   20  A    between atoms: C_35  and  C_37 
REMARK   21  A    between atoms: C_37  and  N_38 
REMARK   22  A    between atoms: C_39  and  O_40 
REMARK   23  A    between atoms: C_43  and  N_44 
REMARK   24  A    between atoms: C_45  and  O_46 
REMARK   25  A    between atoms: C_47  and  O_48 
REMARK   26  A    between atoms: C_49  and  C_51 
REMARK   27  A    between atoms: C_51  and  O_52 
ROOT
ATOM      1  C   UNL d   1       2.221  -2.620   3.984  0.00  0.00     0.292 C 
ATOM      2  O   UNL d   1       2.957  -1.503   4.499  0.00  0.00    -0.348 OA
ATOM      3  C   UNL d   1       4.212  -1.982   4.970  0.00  0.00     0.180 C 
ATOM      4  C   UNL d   1       4.538  -3.214   4.124  0.00  0.00     0.189 C 
ATOM      5  C   UNL d   1       3.307  -3.374   3.205  0.00  0.00     0.208 C 
ENDROOT
BRANCH   1   6
ATOM      6  O   UNL d   1       1.040  -2.287   3.229  0.00  0.00    -0.348 OA
BRANCH   6   7
ATOM      7  C   UNL d   1       0.884  -0.901   2.881  0.00  0.00     0.186 C 
ATOM      8  C   UNL d   1       0.336  -0.035   4.057  0.00  0.00     0.182 C 
ATOM      9  C   UNL d   1       0.401   1.447   3.628  0.00  0.00     0.251 C 
ATOM     10  C   UNL d   1      -0.508   1.700   2.420  0.00  0.00     0.076 C 
ATOM     11  C   UNL d   1      -0.207   0.741   1.257  0.00  0.00     0.251 C 
ATOM     12  C   UNL d   1      -0.166  -0.735   1.741  0.00  0.00     0.189 C 
BRANCH   8  13
ATOM     13  O   UNL d   1       1.039  -0.212   5.280  0.00  0.00    -0.391 OA
ATOM     14  H   UNL d   1       1.946   0.116   5.165  0.00  0.00     0.210 HD
ENDBRANCH   8  13
BRANCH   9  15
ATOM     15  N   UNL d   1       0.031   2.360   4.699  0.00  0.00     0.085 N 
ATOM     16  H   UNL d   1       0.895   2.694   5.145  0.00  0.00     0.313 HD
ATOM     17  H   UNL d   1      -0.485   1.869   5.430  0.00  0.00     0.313 HD
ENDBRANCH   9  15
BRANCH  11  18
ATOM     18  N   UNL d   1      -1.203   0.894   0.203  0.00  0.00     0.085 N 
ATOM     19  H   UNL d   1      -1.950   1.523   0.490  0.00  0.00     0.313 HD
ATOM     20  H   UNL d   1      -0.766   1.329  -0.611  0.00  0.00     0.313 HD
ENDBRANCH  11  18
BRANCH  12  21
ATOM     21  O   UNL d   1      -0.070  -1.718   0.719  0.00  0.00    -0.349 OA
BRANCH  21  22
ATOM     22  C   UNL d   1       0.935  -1.620  -0.279  0.00  0.00     0.296 C 
ATOM     23  C   UNL d   1       0.288  -2.025  -1.616  0.00  0.00     0.303 C 
ATOM     24  C   UNL d   1       1.317  -2.125  -2.753  0.00  0.00     0.187 C 
ATOM     25  C   UNL d   1       2.606  -2.837  -2.312  0.00  0.00     0.180 C 
ATOM     26  C   UNL d   1       3.098  -2.441  -0.907  0.00  0.00     0.179 C 
ATOM     27  O   UNL d   1       2.017  -2.496   0.038  0.00  0.00    -0.349 OA
BRANCH  23  28
ATOM     28  N   UNL d   1      -0.480  -3.265  -1.490  0.00  0.00     0.090 N 
ATOM     29  H   UNL d   1       0.135  -4.071  -1.502  0.00  0.00     0.313 HD
ATOM     30  H   UNL d   1      -1.121  -3.368  -2.280  0.00  0.00     0.313 HD
ENDBRANCH  23  28
BRANCH  24  31
ATOM     31  O   UNL d   1       1.645  -0.811  -3.192  0.00  0.00    -0.391 OA
ATOM     32  H   UNL d   1       1.213  -0.675  -4.052  0.00  0.00     0.210 HD
ENDBRANCH  24  31
BRANCH  25  33
ATOM     33  O   UNL d   1       2.352  -4.250  -2.291  0.00  0.00    -0.390 OA
ATOM     34  H   UNL d   1       3.023  -4.670  -2.861  0.00  0.00     0.210 HD
ENDBRANCH  25  33
BRANCH  26  35
ATOM     35  C   UNL d   1       3.826  -1.091  -0.830  0.00  0.00     0.198 C 
BRANCH  35  36
ATOM     36  O   UNL d   1       5.233  -1.320  -0.887  0.00  0.00    -0.398 OA
ATOM     37  H   UNL d   1       5.440  -1.627  -1.787  0.00  0.00     0.209 HD
ENDBRANCH  35  36
ENDBRANCH  26  35
ENDBRANCH  21  22
ENDBRANCH  12  21
ENDBRANCH   6   7
ENDBRANCH   1   6
BRANCH   5  38
ATOM     38  O   UNL d   1       2.939  -4.698   2.863  0.00  0.00    -0.377 OA
BRANCH  38  39
ATOM     39  C   UNL d   1       3.957  -5.411   2.147  0.00  0.00     0.198 C 
BRANCH  39  40
ATOM     40  C   UNL d   1       3.418  -5.805   0.772  0.00  0.00     0.295 C 
BRANCH  40  41
ATOM     41  N   UNL d   1       4.390  -6.247  -0.230  0.00  0.00     0.085 N 
ATOM     42  H   UNL d   1       4.539  -7.259  -0.160  0.00  0.00     0.315 HD
BRANCH  41  43
ATOM     43  C   UNL d   1       5.665  -5.532  -0.296  0.00  0.00     0.276 C 
BRANCH  43  44
ATOM     44  C   UNL d   1       6.789  -6.326   0.400  0.00  0.00     0.042 C 
ATOM     45  C   UNL d   1       7.929  -5.409   0.896  0.00  0.00     0.275 C 
ATOM     46  N   UNL d   1       9.209  -6.101   1.091  0.00  0.00     0.083 N 
ATOM     47  C   UNL d   1       9.052  -7.516   1.406  0.00  0.00     0.269 C 
ATOM     48  H   UNL d   1       9.753  -5.638   1.817  0.00  0.00     0.315 HD
ATOM     49  C   UNL d   1       8.368  -8.272   0.261  0.00  0.00     0.030 C 
ATOM     50  C   UNL d   1       7.372  -7.410  -0.516  0.00  0.00     0.010 C 
ENDBRANCH  43  44
ENDBRANCH  41  43
ENDBRANCH  40  41
ENDBRANCH  39  40
ENDBRANCH  38  39
ENDBRANCH   5  38
BRANCH   3  51
ATOM     51  C   UNL d   1       5.243  -0.870   4.858  0.00  0.00     0.198 C 
BRANCH  51  52
ATOM     52  O   UNL d   1       4.883   0.209   5.715  0.00  0.00    -0.398 OA
ATOM     53  H   UNL d   1       5.042  -0.088   6.630  0.00  0.00     0.209 HD
ENDBRANCH  51  52
ENDBRANCH   3  51
BRANCH   4  54
ATOM     54  O   UNL d   1       5.005  -4.255   4.971  0.00  0.00    -0.348 OA
BRANCH  54  55
ATOM     55  C   UNL d   1       4.127  -5.196   5.575  0.00  0.00     0.296 C 
ATOM     56  C   UNL d   1       3.835  -4.853   7.049  0.00  0.00     0.303 C 
ATOM     57  C   UNL d   1       2.996  -5.972   7.714  0.00  0.00     0.187 C 
ATOM     58  C   UNL d   1       3.567  -7.374   7.423  0.00  0.00     0.179 C 
ATOM     59  C   UNL d   1       3.923  -7.544   5.932  0.00  0.00     0.183 C 
ATOM     60  O   UNL d   1       4.774  -6.478   5.515  0.00  0.00    -0.349 OA
BRANCH  56  61
ATOM     61  N   UNL d   1       5.069  -4.599   7.794  0.00  0.00     0.090 N 
ATOM     62  H   UNL d   1       4.846  -4.383   8.765  0.00  0.00     0.313 HD
ATOM     63  H   UNL d   1       5.521  -3.766   7.417  0.00  0.00     0.313 HD
ENDBRANCH  56  61
BRANCH  57  64
ATOM     64  O   UNL d   1       1.647  -5.955   7.232  0.00  0.00    -0.391 OA
ATOM     65  H   UNL d   1       1.499  -5.139   6.727  0.00  0.00     0.210 HD
ENDBRANCH  57  64
BRANCH  58  66
ATOM     66  O   UNL d   1       4.738  -7.557   8.229  0.00  0.00    -0.390 OA
ATOM     67  H   UNL d   1       5.436  -6.978   7.876  0.00  0.00     0.210 HD
ENDBRANCH  58  66
BRANCH  59  68
ATOM     68  C   UNL d   1       4.581  -8.908   5.629  0.00  0.00     0.301 C 
BRANCH  68  69
ATOM     69  N   UNL d   1       5.627  -8.855   4.608  0.00  0.00     0.080 N 
ATOM     70  H   UNL d   1       6.522  -8.646   5.053  0.00  0.00     0.312 HD
ATOM     71  H   UNL d   1       5.445  -8.081   3.970  0.00  0.00     0.312 HD
ENDBRANCH  68  69
ENDBRANCH  59  68
ENDBRANCH  54  55
ENDBRANCH   4  54
TORSDOF 27
