@<TRIPOS>MOLECULE
2BE0_JS5_A_50
 113 117 0 0 0
SMALL
GASTEIGER

@<TRIPOS>ATOM
      1 C           0.9349   -1.6199   -0.2791 C.3     1  UNL1        0.1776
      2 H           1.3238   -0.6019   -0.3616 H       1  UNL1        0.0927
      3 O          -0.0705   -1.7180    0.7188 O.3     1  UNL1       -0.3422
      4 C          -0.1660   -0.7348    1.7411 C.3     1  UNL1        0.1055
      5 H          -1.1449   -0.9526    2.1949 H       1  UNL1        0.0639
      6 C          -0.2067    0.7409    1.2566 C.3     1  UNL1        0.0355
      7 H           0.7802    1.0075    0.8628 H       1  UNL1        0.0485
      8 C          -0.5085    1.7000    2.4203 C.3     1  UNL1       -0.0175
      9 C           0.4012    1.4470    3.6284 C.3     1  UNL1        0.0351
     10 H           1.4383    1.6813    3.3413 H       1  UNL1        0.0485
     11 N           0.0306    2.3603    4.6987 N.3     1  UNL1       -0.3250
     12 C           0.3357   -0.0345    4.0566 C.3     1  UNL1        0.0990
     13 H          -0.7009   -0.3248    4.2808 H       1  UNL1        0.0636
     14 C           0.8840   -0.9011    2.8810 C.3     1  UNL1        0.1166
     15 H           1.8571   -0.5135    2.5373 H       1  UNL1        0.0650
     16 O           1.0403   -2.2869    3.2289 O.3     1  UNL1       -0.3402
     17 C           2.2210   -2.6205    3.9840 C.3     1  UNL1        0.1887
     18 H           1.8621   -3.2209    4.8302 H       1  UNL1        0.0938
     19 O           2.9571   -1.5033    4.4993 O.3     1  UNL1       -0.3405
     20 C           4.2123   -1.9820    4.9696 C.3     1  UNL1        0.1135
     21 H           4.0913   -2.2357    6.0279 H       1  UNL1        0.0647
     22 C           4.5379   -3.2143    4.1243 C.3     1  UNL1        0.1208
     23 H           5.3943   -2.9920    3.4733 H       1  UNL1        0.0651
     24 C           3.3073   -3.3745    3.2055 C.3     1  UNL1        0.1380
     25 H           3.4898   -2.8191    2.2753 H       1  UNL1        0.0674
     26 O           2.9391   -4.6979    2.8627 O.3     1  UNL1       -0.3676
     27 C           3.9567   -5.4113    2.1469 C.3     1  UNL1        0.0608
     28 C           3.4177   -5.8049    0.7722 C.3     1  UNL1        0.0194
     29 N           4.3900   -6.2473   -0.2295 N.3     1  UNL1       -0.3135
     30 C           5.6650   -5.5315   -0.2962 C.3     1  UNL1       -0.0000
     31 C           6.7887   -6.3261    0.4000 C.3     1  UNL1       -0.0159
     32 H           6.3790   -6.8240    1.2894 H       1  UNL1        0.0325
     33 C           7.9290   -5.4085    0.8964 C.3     1  UNL1       -0.0001
     34 N           9.2092   -6.1010    1.0909 N.3     1  UNL1       -0.3157
     35 C           9.0524   -7.5157    1.4062 C.3     1  UNL1       -0.0041
     36 C           8.3679   -8.2719    0.2614 C.3     1  UNL1       -0.0401
     37 C           7.3720   -7.4100   -0.5156 C.3     1  UNL1       -0.0467
     38 O           5.0055   -4.2555    4.9712 O.3     1  UNL1       -0.3410
     39 C           4.1265   -5.1962    5.5755 C.3     1  UNL1        0.1776
     40 H           3.1783   -5.2640    5.0418 H       1  UNL1        0.0927
     41 C           3.8349   -4.8529    7.0487 C.3     1  UNL1        0.0853
     42 H           3.2410   -3.9308    7.0802 H       1  UNL1        0.0535
     43 N           5.0687   -4.5989    7.7943 N.3     1  UNL1       -0.3211
     44 C           2.9964   -5.9721    7.7139 C.3     1  UNL1        0.1033
     45 H           2.9529   -5.8194    8.7969 H       1  UNL1        0.0637
     46 O           1.6475   -5.9545    7.2324 O.3     1  UNL1       -0.3874
     47 C           3.5672   -7.3736    7.4235 C.3     1  UNL1        0.1100
     48 H           2.8537   -8.1502    7.7220 H       1  UNL1        0.0646
     49 O           4.7382   -7.5567    8.2292 O.3     1  UNL1       -0.3866
     50 C           3.9228   -7.5436    5.9324 C.3     1  UNL1        0.1022
     51 H           3.0005   -7.4939    5.3346 H       1  UNL1        0.0636
     52 O           4.7741   -6.4777    5.5149 O.3     1  UNL1       -0.3425
     53 C           4.5813   -8.9080    5.6294 C.3     1  UNL1        0.0222
     54 N           5.6267   -8.8546    4.6076 N.3     1  UNL1       -0.3276
     55 C           5.2428   -0.8697    4.8582 C.3     1  UNL1        0.0730
     56 O           4.8832    0.2093    5.7149 O.3     1  UNL1       -0.3924
     57 O           1.0388   -0.2118    5.2804 O.3     1  UNL1       -0.3876
     58 N          -1.2029    0.8942    0.2027 N.3     1  UNL1       -0.3250
     59 C           0.2877   -2.0251   -1.6158 C.3     1  UNL1        0.0853
     60 H          -0.4249   -1.2356   -1.8803 H       1  UNL1        0.0535
     61 N          -0.4797   -3.2646   -1.4899 N.3     1  UNL1       -0.3211
     62 C           1.3165   -2.1251   -2.7530 C.3     1  UNL1        0.1033
     63 H           0.8941   -2.6522   -3.6132 H       1  UNL1        0.0637
     64 O           1.6449   -0.8112   -3.1924 O.3     1  UNL1       -0.3874
     65 C           2.6060   -2.8375   -2.3120 C.3     1  UNL1        0.1109
     66 H           3.4201   -2.6735   -3.0257 H       1  UNL1        0.0646
     67 O           2.3518   -4.2495   -2.2906 O.3     1  UNL1       -0.3865
     68 C           3.0978   -2.4407   -0.9074 C.3     1  UNL1        0.1129
     69 H           3.8150   -3.1973   -0.5814 H       1  UNL1        0.0647
     70 O           2.0173   -2.4956    0.0383 O.3     1  UNL1       -0.3415
     71 C           3.8257   -1.0915   -0.8297 C.3     1  UNL1        0.0730
     72 O           5.2332   -1.3204   -0.8870 O.3     1  UNL1       -0.3924
     73 H          -1.5592    1.5969    2.7215 H       1  UNL1        0.0297
     74 H          -0.3933    2.7365    2.0747 H       1  UNL1        0.0297
     75 H           0.8953    2.6937    5.1453 H       1  UNL1        0.1185
     76 H          -0.4850    1.8694    5.4299 H       1  UNL1        0.1185
     77 H           4.1879   -6.3160    2.7187 H       1  UNL1        0.0573
     78 H           4.8747   -4.8217    2.0857 H       1  UNL1        0.0573
     79 H           2.8174   -4.9884    0.3606 H       1  UNL1        0.0446
     80 H           2.7057   -6.6265    0.9232 H       1  UNL1        0.0446
     81 H           4.5392   -7.2589   -0.1599 H       1  UNL1        0.1220
     82 H           5.5908   -4.5171    0.1157 H       1  UNL1        0.0427
     83 H           5.9183   -5.3818   -1.3551 H       1  UNL1        0.0427
     84 H           7.6239   -4.9419    1.8413 H       1  UNL1        0.0427
     85 H           8.1053   -4.5927    0.1867 H       1  UNL1        0.0427
     86 H           9.7526   -5.6382    1.8174 H       1  UNL1        0.1219
     87 H           8.4672   -7.6284    2.3274 H       1  UNL1        0.0424
     88 H          10.0305   -7.9685    1.6080 H       1  UNL1        0.0424
     89 H           7.8451   -9.1436    0.6786 H       1  UNL1        0.0278
     90 H           9.1197   -8.6652   -0.4349 H       1  UNL1        0.0278
     91 H           6.5829   -8.0474   -0.9314 H       1  UNL1        0.0269
     92 H           7.8749   -6.9435   -1.3710 H       1  UNL1        0.0269
     93 H           4.8465   -4.3829    8.7651 H       1  UNL1        0.1187
     94 H           5.5211   -3.7662    7.4169 H       1  UNL1        0.1187
     95 H           1.4990   -5.1392    6.7271 H       1  UNL1        0.2100
     96 H           5.4355   -6.9776    7.8762 H       1  UNL1        0.2100
     97 H           3.8078   -9.6003    5.2802 H       1  UNL1        0.0448
     98 H           5.0057   -9.3582    6.5320 H       1  UNL1        0.0448
     99 H           6.5216   -8.6464    5.0527 H       1  UNL1        0.1183
    100 H           5.4452   -8.0810    3.9699 H       1  UNL1        0.1183
    101 H           5.3034   -0.4805    3.8325 H       1  UNL1        0.0584
    102 H           6.2350   -1.2237    5.1563 H       1  UNL1        0.0584
    103 H           5.0422   -0.0880    6.6300 H       1  UNL1        0.2095
    104 H           1.9464    0.1162    5.1653 H       1  UNL1        0.2100
    105 H          -1.9500    1.5230    0.4896 H       1  UNL1        0.1185
    106 H          -0.7660    1.3294   -0.6105 H       1  UNL1        0.1185
    107 H           0.1352   -4.0708   -1.5020 H       1  UNL1        0.1187
    108 H          -1.1210   -3.3679   -2.2798 H       1  UNL1        0.1187
    109 H           1.2129   -0.6746   -4.0516 H       1  UNL1        0.2100
    110 H           3.0226   -4.6702   -2.8611 H       1  UNL1        0.2100
    111 H           3.5564   -0.3934   -1.6278 H       1  UNL1        0.0584
    112 H           3.6196   -0.5987    0.1253 H       1  UNL1        0.0584
    113 H           5.4401   -1.6271   -1.7868 H       1  UNL1        0.2095
@<TRIPOS>BOND
     1     1    59    1
     2     1    70    1
     3     1     3    1
     4     1     2    1
     5     4     6    1
     6     4     5    1
     7     4     3    1
     8     6     7    1
     9     6     8    1
    10     6    58    1
    11     8     9    1
    12     8    73    1
    13     8    74    1
    14     9    12    1
    15     9    11    1
    16     9    10    1
    17    11    75    1
    18    11    76    1
    19    12    13    1
    20    12    14    1
    21    12    57    1
    22    14     4    1
    23    14    16    1
    24    14    15    1
    25    17    19    1
    26    17    24    1
    27    17    18    1
    28    17    16    1
    29    19    20    1
    30    20    21    1
    31    20    22    1
    32    20    55    1
    33    22    24    1
    34    22    38    1
    35    22    23    1
    36    24    26    1
    37    24    25    1
    38    26    27    1
    39    27    28    1
    40    27    77    1
    41    27    78    1
    42    28    29    1
    43    28    79    1
    44    28    80    1
    45    29    30    1
    46    29    81    1
    47    30    82    1
    48    30    83    1
    49    31    33    1
    50    31    37    1
    51    31    32    1
    52    31    30    1
    53    33    34    1
    54    33    84    1
    55    33    85    1
    56    34    35    1
    57    34    86    1
    58    35    36    1
    59    35    87    1
    60    35    88    1
    61    36    37    1
    62    36    89    1
    63    36    90    1
    64    37    91    1
    65    37    92    1
    66    39    41    1
    67    39    52    1
    68    39    40    1
    69    39    38    1
    70    41    44    1
    71    41    43    1
    72    41    42    1
    73    43    93    1
    74    43    94    1
    75    44    47    1
    76    44    46    1
    77    44    45    1
    78    46    95    1
    79    47    48    1
    80    47    49    1
    81    47    50    1
    82    49    96    1
    83    50    51    1
    84    50    52    1
    85    50    53    1
    86    53    54    1
    87    53    97    1
    88    53    98    1
    89    54    99    1
    90    54   100    1
    91    55    56    1
    92    55   101    1
    93    55   102    1
    94    56   103    1
    95    57   104    1
    96    58   105    1
    97    58   106    1
    98    59    62    1
    99    59    61    1
   100    59    60    1
   101    61   107    1
   102    61   108    1
   103    62    64    1
   104    62    63    1
   105    64   109    1
   106    65    62    1
   107    65    66    1
   108    65    67    1
   109    67   110    1
   110    68    65    1
   111    68    70    1
   112    68    71    1
   113    68    69    1
   114    71    72    1
   115    71   111    1
   116    71   112    1
   117    72   113    1
