REMARK  0 active torsions:
REMARK  status: ('A' for Active; 'I' for Inactive)
ROOT
ATOM      1  N   UNL d   1      -1.757   0.875   0.144  0.00  0.00    -0.316 N 
ATOM      2  H   UNL d   1      -2.468   1.589   0.174  0.00  0.00     0.170 HD
ATOM      3  C   UNL d   1      -2.068  -0.463   0.304  0.00  0.00     0.212 A 
ATOM      4  N   UNL d   1      -1.240  -1.461   0.265  0.00  0.00    -0.222 NA
ATOM      5  C   UNL d   1       0.092  -1.071   0.085  0.00  0.00     0.184 A 
ATOM      6  C   UNL d   1       0.438   0.240  -0.083  0.00  0.00     0.150 A 
ATOM      7  C   UNL d   1      -0.475   1.315  -0.059  0.00  0.00     0.277 A 
ATOM      8  O   UNL d   1      -0.171   2.493  -0.198  0.00  0.00    -0.266 OA
ATOM      9  N   UNL d   1       1.785   0.256  -0.260  0.00  0.00    -0.343 N 
ATOM     10  H   UNL d   1       2.355   1.086  -0.358  0.00  0.00     0.167 HD
ATOM     11  C   UNL d   1       2.210  -1.042  -0.162  0.00  0.00     0.210 A 
ATOM     12  N   UNL d   1       1.196  -1.872  -0.004  0.00  0.00    -0.222 NA
ENDROOT
TORSDOF 0
