@<TRIPOS>MOLECULE
ligand.pdb
 24 23 0 0 0
SMALL
GASTEIGER

@<TRIPOS>ATOM
      1 N           1.0392   -0.1237   -0.2438 N.3     1  LYS1       -0.3184
      2 CA          2.5018   -0.1241   -0.0450 C.3     1  LYS1        0.1032
      3 HA          2.9790   -0.4887   -0.9619 H       1  LYS1        0.0574
      4 C           2.8479   -1.0834    1.1095 C.2     1  LYS1        0.3217
      5 O           2.9202   -0.7707    2.2870 O.2     1  LYS1       -0.2493
      6 OXT         2.9801   -2.3689    0.6941 O.3     1  LYS1       -0.4795
      7 CB          2.9987    1.3040    0.2231 C.3     1  LYS1       -0.0273
      8 CG          4.5296    1.3780    0.2804 C.3     1  LYS1       -0.0500
      9 CD          5.0197    2.8111    0.4991 C.3     1  LYS1       -0.0406
     10 CE          6.5456    2.8581    0.5770 C.3     1  LYS1       -0.0069
     11 NZ          7.0047    4.2248    0.7868 N.3     1  LYS1       -0.3300
     12 H1          0.6031    0.2847    0.5884 H       1  LYS1        0.1190
     13 H2          0.6840   -1.0789   -0.2831 H       1  LYS1        0.1190
     14 HXT         2.8636   -2.4808   -0.2689 H       1  LYS1        0.2951
     15 HB1         2.5801    1.6866    1.1627 H       1  LYS1        0.0286
     16 HB2         2.6439    1.9670   -0.5772 H       1  LYS1        0.0286
     17 HG1         4.9498    0.9877   -0.6546 H       1  LYS1        0.0266
     18 HG2         4.9052    0.7437    1.0915 H       1  LYS1        0.0266
     19 HD1         4.5879    3.2089    1.4262 H       1  LYS1        0.0277
     20 HD2         4.6669    3.4478   -0.3220 H       1  LYS1        0.0277
     21 HE1         6.9836    2.4663   -0.3477 H       1  LYS1        0.0422
     22 HE2         6.8989    2.2322    1.4036 H       1  LYS1        0.0422
     23 HZ1         6.7136    4.8113    0.0065 H       1  LYS1        0.1182
     24 HZ2         8.0237    4.2420    0.7950 H       1  LYS1        0.1182
@<TRIPOS>BOND
     1     1    12    1
     2     1    13    1
     3     2     4    1
     4     2     7    1
     5     2     3    1
     6     2     1    1
     7     4     5    2
     8     4     6    1
     9     6    14    1
    10     7     8    1
    11     7    15    1
    12     7    16    1
    13     8     9    1
    14     8    17    1
    15     8    18    1
    16     9    10    1
    17     9    19    1
    18     9    20    1
    19    10    11    1
    20    10    21    1
    21    10    22    1
    22    11    23    1
    23    11    24    1
