REMARK  1 active torsions:
REMARK  status: ('A' for Active; 'I' for Inactive)
REMARK    1  A    between atoms: C_12  and  N_13 
ROOT
ATOM      1  N   UNL d   1       2.398  -0.640   0.033  0.00  0.00    -0.154 N 
ATOM      2  H   UNL d   1       3.288  -1.112   0.080  0.00  0.00     0.187 HD
ATOM      3  C   UNL d   1       1.286  -1.444  -0.002  0.00  0.00     0.275 A 
ATOM      4  O   UNL d   1       1.347  -2.666  -0.018  0.00  0.00    -0.267 OA
ATOM      5  C   UNL d   1       0.015  -0.738  -0.011  0.00  0.00     0.098 A 
ATOM      6  C   UNL d   1      -1.211  -1.352  -0.024  0.00  0.00     0.139 A 
ATOM      7  N   UNL d   1      -2.368  -0.658  -0.025  0.00  0.00    -0.253 NA
ATOM      8  C   UNL d   1      -2.245   0.683  -0.015  0.00  0.00     0.235 A 
ATOM      9  N   UNL d   1      -1.095   1.374  -0.001  0.00  0.00    -0.221 NA
ATOM     10  C   UNL d   1       0.030   0.636   0.004  0.00  0.00     0.186 A 
ATOM     11  N   UNL d   1       1.222   1.374   0.048  0.00  0.00    -0.044 NA
ATOM     12  C   UNL d   1       2.339   0.722   0.075  0.00  0.00     0.703 A 
ENDROOT
BRANCH  12  13
ATOM     13  N   UNL d   1       3.520   1.380   0.149  0.00  0.00    -0.233 N 
ATOM     14  H   UNL d   1       3.439   2.373  -0.050  0.00  0.00     0.174 HD
ATOM     15  H   UNL d   1       4.347   0.948  -0.238  0.00  0.00     0.174 HD
ENDBRANCH  12  13
TORSDOF 1
