4LX6_29H_A_601
 OpenBabel03221817313D

 17 18  0  0  0  0  0  0  0  0999 V2000
    2.3981   -0.6402    0.0328 N   0  0  0  0  0  0  0  0  0  0  0  0
    3.2879   -1.1116    0.0800 H   0  0  0  0  0  0  0  0  0  0  0  0
    1.2862   -1.4439   -0.0016 C   0  0  0  0  0  0  0  0  0  0  0  0
    1.3471   -2.6662   -0.0180 O   0  0  0  0  0  0  0  0  0  0  0  0
    0.0150   -0.7382   -0.0115 C   0  0  0  0  0  0  0  0  0  0  0  0
   -1.2107   -1.3523   -0.0237 C   0  0  0  0  0  0  0  0  0  0  0  0
   -2.3678   -0.6579   -0.0251 N   0  0  0  0  0  0  0  0  0  0  0  0
   -2.2449    0.6830   -0.0153 C   0  0  0  0  0  0  0  0  0  0  0  0
   -1.0948    1.3738   -0.0010 N   0  0  0  0  0  0  0  0  0  0  0  0
    0.0302    0.6358    0.0037 C   0  0  0  0  0  0  0  0  0  0  0  0
    1.2223    1.3737    0.0482 N   0  0  0  0  0  0  0  0  0  0  0  0
    2.3388    0.7224    0.0751 C   0  0  0  0  0  0  0  0  0  0  0  0
    3.5197    1.3797    0.1486 N   0  0  0  0  0  0  0  0  0  0  0  0
   -1.3083   -2.4337   -0.0268 H   0  0  0  0  0  0  0  0  0  0  0  0
   -3.1652    1.2588   -0.0145 H   0  0  0  0  0  0  0  0  0  0  0  0
    3.4390    2.3729   -0.0501 H   0  0  0  0  0  0  0  0  0  0  0  0
    4.3468    0.9475   -0.2377 H   0  0  0  0  0  0  0  0  0  0  0  0
  1  2  1  0  0  0  0
  1  3  1  0  0  0  0
  1 12  1  0  0  0  0
  3  4  2  0  0  0  0
  3  5  1  0  0  0  0
  5  6  2  0  0  0  0
  5 10  1  0  0  0  0
  6  7  1  0  0  0  0
  6 14  1  0  0  0  0
  7  8  2  0  0  0  0
  8  9  1  0  0  0  0
  8 15  1  0  0  0  0
  9 10  2  0  0  0  0
 10 11  1  0  0  0  0
 11 12  2  0  0  0  0
 12 13  1  0  0  0  0
 13 16  1  0  0  0  0
 13 17  1  0  0  0  0
M  END
$$$$
