@<TRIPOS>MOLECULE
4LX6_29H_A_601
 17 18 0 0 0
SMALL
GASTEIGER

@<TRIPOS>ATOM
      1 N           2.3981   -0.6402    0.0328 N.ar    1  UNL1       -0.2947
      2 H           3.2879   -1.1116    0.0800 H       1  UNL1        0.1716
      3 C           1.2862   -1.4439   -0.0016 C.ar    1  UNL1        0.2634
      4 O           1.3471   -2.6662   -0.0180 O.2     1  UNL1       -0.2670
      5 C           0.0150   -0.7382   -0.0115 C.ar    1  UNL1        0.1015
      6 C          -1.2107   -1.3523   -0.0237 C.ar    1  UNL1        0.0452
      7 N          -2.3678   -0.6579   -0.0251 N.ar    1  UNL1       -0.2428
      8 C          -2.2449    0.6830   -0.0153 C.ar    1  UNL1        0.1183
      9 N          -1.0948    1.3738   -0.0010 N.ar    1  UNL1       -0.2158
     10 C           0.0302    0.6358    0.0037 C.ar    1  UNL1        0.1715
     11 N           1.2223    1.3737    0.0482 N.ar    1  UNL1       -0.1962
     12 C           2.3388    0.7224    0.0751 C.ar    1  UNL1        0.1949
     13 N           3.5197    1.3797    0.1486 N.pl3   1  UNL1       -0.3289
     14 H          -1.3083   -2.4337   -0.0268 H       1  UNL1        0.0839
     15 H          -3.1652    1.2588   -0.0145 H       1  UNL1        0.1047
     16 H           3.4390    2.3729   -0.0501 H       1  UNL1        0.1451
     17 H           4.3468    0.9475   -0.2377 H       1  UNL1        0.1451
@<TRIPOS>BOND
     1     1     2    1
     2     1     3   ar
     3     1    12   ar
     4     3     4    2
     5     3     5   ar
     6     5     6   ar
     7     5    10   ar
     8     6     7   ar
     9     6    14    1
    10     7     8   ar
    11     8     9   ar
    12     8    15    1
    13     9    10   ar
    14    10    11   ar
    15    11    12   ar
    16    12    13    1
    17    13    16    1
    18    13    17    1
