REMARK  12 active torsions:
REMARK  status: ('A' for Active; 'I' for Inactive)
REMARK    1  A    between atoms: C_2  and  C_3 
REMARK    2  A    between atoms: C_3  and  N_4 
REMARK    3  A    between atoms: N_4  and  C_5 
REMARK    4  A    between atoms: C_5  and  C_6 
REMARK    5  A    between atoms: C_6  and  N_7 
REMARK    6  A    between atoms: N_7  and  C_8 
REMARK    7  A    between atoms: C_25  and  N_26 
REMARK    8  A    between atoms: N_26  and  C_27 
REMARK    9  A    between atoms: C_27  and  C_28 
REMARK   10  A    between atoms: C_28  and  N_29 
REMARK   11  A    between atoms: N_29  and  C_30 
REMARK   12  A    between atoms: C_30  and  C_31 
ROOT
ATOM      1  C   UNL d   1    -102.548 -18.175 -72.038  0.00  0.00     0.079 A 
ATOM      2  C   UNL d   1    -101.739 -19.315 -71.962  0.00  0.00     0.020 A 
ATOM      3  C   UNL d   1    -100.351 -19.199 -72.107  0.00  0.00     0.020 A 
ATOM      4  C   UNL d   1    -101.971 -16.921 -72.277  0.00  0.00     0.061 A 
ATOM      5  C   UNL d   1    -102.773 -15.773 -72.286  0.00  0.00     0.199 A 
ATOM      6  O   UNL d   1    -103.991 -15.874 -72.162  0.00  0.00    -0.286 OA
ATOM      7  C   UNL d   1    -102.189 -14.510 -72.436  0.00  0.00     0.069 A 
ATOM      8  C   UNL d   1    -102.986 -13.360 -72.398  0.00  0.00     0.134 A 
ATOM      9  O   UNL d   1    -104.356 -13.475 -72.279  0.00  0.00    -0.190 OA
ATOM     10  C   UNL d   1    -102.396 -12.095 -72.503  0.00  0.00     0.030 A 
ATOM     11  C   UNL d   1    -101.009 -11.979 -72.648  0.00  0.00     0.030 A 
ATOM     12  C   UNL d   1    -100.212 -13.129 -72.687  0.00  0.00     0.134 A 
ATOM     13  O   UNL d   1     -98.844 -13.016 -72.829  0.00  0.00    -0.190 OA
ATOM     14  C   UNL d   1    -100.801 -14.394 -72.581  0.00  0.00     0.069 A 
ATOM     15  C   UNL d   1     -99.999 -15.542 -72.574  0.00  0.00     0.199 A 
ATOM     16  O   UNL d   1     -98.784 -15.443 -72.732  0.00  0.00    -0.286 OA
ATOM     17  C   UNL d   1    -100.583 -16.805 -72.418  0.00  0.00     0.061 A 
ATOM     18  C   UNL d   1     -99.772 -17.942 -72.318  0.00  0.00     0.079 A 
ENDROOT
BRANCH   1  19
ATOM     19  N   UNL d   1    -103.846 -18.259 -71.747  0.00  0.00    -0.268 NA
BRANCH  19  20
ATOM     20  C   UNL d   1    -104.696 -19.279 -72.424  0.00  0.00     0.164 C 
BRANCH  20  21
ATOM     21  C   UNL d   1    -104.776 -18.964 -73.919  0.00  0.00     0.316 C 
BRANCH  21  22
ATOM     22  N   UNL d   1    -106.087 -18.325 -74.221  0.00  0.00     0.344 N 
BRANCH  22  23
ATOM     23  C   UNL d   1    -106.286 -18.278 -75.697  0.00  0.00     0.326 C 
BRANCH  23  24
ATOM     24  C   UNL d   1    -107.557 -17.488 -76.014  0.00  0.00     0.221 C 
ATOM     25  O   UNL d   1    -108.013 -17.830 -77.314  0.00  0.00    -0.218 OA
ENDBRANCH  23  24
ENDBRANCH  22  23
ENDBRANCH  21  22
ENDBRANCH  20  21
ENDBRANCH  19  20
ENDBRANCH   1  19
BRANCH  18  26
ATOM     26  N   UNL d   1     -98.449 -17.829 -72.430  0.00  0.00    -0.268 NA
BRANCH  26  27
ATOM     27  C   UNL d   1     -97.760 -18.318 -73.657  0.00  0.00     0.164 C 
BRANCH  27  28
ATOM     28  C   UNL d   1     -96.853 -17.215 -74.208  0.00  0.00     0.316 C 
BRANCH  28  29
ATOM     29  N   UNL d   1     -95.809 -16.884 -73.198  0.00  0.00     0.344 N 
BRANCH  29  30
ATOM     30  C   UNL d   1     -94.676 -16.182 -73.861  0.00  0.00     0.326 C 
BRANCH  30  31
ATOM     31  C   UNL d   1     -93.562 -15.943 -72.840  0.00  0.00     0.221 C 
ATOM     32  O   UNL d   1     -92.353 -16.518 -73.316  0.00  0.00    -0.218 OA
ENDBRANCH  30  31
ENDBRANCH  29  30
ENDBRANCH  28  29
ENDBRANCH  27  28
ENDBRANCH  26  27
ENDBRANCH  18  26
TORSDOF 12
