@<TRIPOS>MOLECULE
2KGP_MIX_A_26
 32 34 0 0 0
SMALL
GASTEIGER
****
Coordinates from PDB:2KGP:A:26 Model:1 without hydrogens
@<TRIPOS>ATOM
      1 O        -108.0130  -17.8300  -77.3140 O.3     1  UNL1       -0.2188
      2 C        -107.5570  -17.4880  -76.0140 C.3     1  UNL1        0.2008
      3 C        -106.2860  -18.2780  -75.6970 C.3     1  UNL1        0.1242
      4 N        -106.0870  -18.3250  -74.2210 N.3     1  UNL1       -0.2134
      5 C        -104.7760  -18.9640  -73.9190 C.3     1  UNL1        0.1121
      6 C        -104.6960  -19.2790  -72.4240 C.3     1  UNL1        0.1309
      7 N        -103.8460  -18.2590  -71.7470 N.pl3   1  UNL1       -0.2360
      8 C        -102.5480  -18.1750  -72.0380 C.ar    1  UNL1        0.0686
      9 C        -101.7390  -19.3150  -71.9620 C.ar    1  UNL1        0.0175
     10 C        -100.3510  -19.1990  -72.1070 C.ar    1  UNL1        0.0175
     11 C        -101.9710  -16.9210  -72.2770 C.ar    1  UNL1        0.0582
     12 C        -102.7730  -15.7730  -72.2860 C.2     1  UNL1        0.2002
     13 O        -103.9910  -15.8740  -72.1620 O.2     1  UNL1       -0.2864
     14 C        -102.1890  -14.5100  -72.4360 C.ar    1  UNL1        0.0840
     15 C        -102.9860  -13.3600  -72.3980 C.ar    1  UNL1        0.1990
     16 O        -104.3560  -13.4750  -72.2790 O.3     1  UNL1       -0.2865
     17 C        -102.3960  -12.0950  -72.5030 C.ar    1  UNL1        0.0454
     18 C        -101.0090  -11.9790  -72.6480 C.ar    1  UNL1        0.0454
     19 C        -100.2120  -13.1290  -72.6870 C.ar    1  UNL1        0.1990
     20 O         -98.8440  -13.0160  -72.8290 O.3     1  UNL1       -0.2865
     21 C        -100.8010  -14.3940  -72.5810 C.ar    1  UNL1        0.0840
     22 C         -99.9990  -15.5420  -72.5740 C.2     1  UNL1        0.2002
     23 O         -98.7840  -15.4430  -72.7320 O.2     1  UNL1       -0.2864
     24 C        -100.5830  -16.8050  -72.4180 C.ar    1  UNL1        0.0582
     25 C         -99.7720  -17.9420  -72.3180 C.ar    1  UNL1        0.0686
     26 N         -98.4490  -17.8290  -72.4300 N.pl3   1  UNL1       -0.2360
     27 C         -97.7600  -18.3180  -73.6570 C.3     1  UNL1        0.1309
     28 C         -96.8530  -17.2150  -74.2080 C.3     1  UNL1        0.1121
     29 N         -95.8090  -16.8840  -73.1980 N.3     1  UNL1       -0.2134
     30 C         -94.6760  -16.1820  -73.8610 C.3     1  UNL1        0.1242
     31 C         -93.5620  -15.9430  -72.8400 C.3     1  UNL1        0.2008
     32 O         -92.3530  -16.5180  -73.3160 O.3     1  UNL1       -0.2188
@<TRIPOS>BOND
     1     1     2    1
     2     2     3    1
     3     3     4    1
     4     4     5    1
     5     5     6    1
     6     6     7    1
     7     7     8    1
     8     8     9   ar
     9     8    11   ar
    10     9    10   ar
    11    10    25   ar
    12    11    12    1
    13    11    24   ar
    14    12    13    2
    15    12    14    1
    16    14    15   ar
    17    14    21   ar
    18    15    16    1
    19    15    17   ar
    20    17    18   ar
    21    18    19   ar
    22    19    20    1
    23    19    21   ar
    24    21    22    1
    25    22    23    2
    26    22    24    1
    27    24    25   ar
    28    25    26    1
    29    26    27    1
    30    27    28    1
    31    28    29    1
    32    29    30    1
    33    30    31    1
    34    31    32    1
