2KGP_MIX_A_26
 OpenBabel10091713583D
Coordinates from PDB:2KGP:A:26 Model:1 without hydrogens
 60 62  0  0  0  0  0  0  0  0999 V2000
 -108.0130  -17.8300  -77.3140 O   0  0  0  0  0  0  0  0  0  0  0  0
 -107.5570  -17.4880  -76.0140 C   0  0  0  0  0  0  0  0  0  0  0  0
 -106.2860  -18.2780  -75.6970 C   0  0  0  0  0  0  0  0  0  0  0  0
 -106.0870  -18.3250  -74.2210 N   0  0  0  0  0  0  0  0  0  0  0  0
 -104.7760  -18.9640  -73.9190 C   0  0  0  0  0  0  0  0  0  0  0  0
 -104.6960  -19.2790  -72.4240 C   0  0  0  0  0  0  0  0  0  0  0  0
 -103.8460  -18.2590  -71.7470 N   0  0  0  0  0  0  0  0  0  0  0  0
 -102.5480  -18.1750  -72.0380 C   0  0  0  0  0  0  0  0  0  0  0  0
 -101.7390  -19.3150  -71.9620 C   0  0  0  0  0  0  0  0  0  0  0  0
 -100.3510  -19.1990  -72.1070 C   0  0  0  0  0  0  0  0  0  0  0  0
 -101.9710  -16.9210  -72.2770 C   0  0  0  0  0  0  0  0  0  0  0  0
 -102.7730  -15.7730  -72.2860 C   0  0  0  0  0  0  0  0  0  0  0  0
 -103.9910  -15.8740  -72.1620 O   0  0  0  0  0  0  0  0  0  0  0  0
 -102.1890  -14.5100  -72.4360 C   0  0  0  0  0  0  0  0  0  0  0  0
 -102.9860  -13.3600  -72.3980 C   0  0  0  0  0  0  0  0  0  0  0  0
 -104.3560  -13.4750  -72.2790 O   0  0  0  0  0  0  0  0  0  0  0  0
 -102.3960  -12.0950  -72.5030 C   0  0  0  0  0  0  0  0  0  0  0  0
 -101.0090  -11.9790  -72.6480 C   0  0  0  0  0  0  0  0  0  0  0  0
 -100.2120  -13.1290  -72.6870 C   0  0  0  0  0  0  0  0  0  0  0  0
  -98.8440  -13.0160  -72.8290 O   0  0  0  0  0  0  0  0  0  0  0  0
 -100.8010  -14.3940  -72.5810 C   0  0  0  0  0  0  0  0  0  0  0  0
  -99.9990  -15.5420  -72.5740 C   0  0  0  0  0  0  0  0  0  0  0  0
  -98.7840  -15.4430  -72.7320 O   0  0  0  0  0  0  0  0  0  0  0  0
 -100.5830  -16.8050  -72.4180 C   0  0  0  0  0  0  0  0  0  0  0  0
  -99.7720  -17.9420  -72.3180 C   0  0  0  0  0  0  0  0  0  0  0  0
  -98.4490  -17.8290  -72.4300 N   0  0  0  0  0  0  0  0  0  0  0  0
  -97.7600  -18.3180  -73.6570 C   0  0  0  0  0  0  0  0  0  0  0  0
  -96.8530  -17.2150  -74.2080 C   0  0  0  0  0  0  0  0  0  0  0  0
  -95.8090  -16.8840  -73.1980 N   0  0  0  0  0  0  0  0  0  0  0  0
  -94.6760  -16.1820  -73.8610 C   0  0  0  0  0  0  0  0  0  0  0  0
  -93.5620  -15.9430  -72.8400 C   0  0  0  0  0  0  0  0  0  0  0  0
  -92.3530  -16.5180  -73.3160 O   0  0  0  0  0  0  0  0  0  0  0  0
 -108.8190  -17.3295  -77.5160 H   0  0  0  0  0  0  0  0  0  0  0  0
 -108.3138  -17.7263  -75.2961 H   0  0  0  0  0  0  0  0  0  0  0  0
 -107.3456  -16.4399  -75.9737 H   0  0  0  0  0  0  0  0  0  0  0  0
 -105.4453  -17.8005  -76.1554 H   0  0  0  0  0  0  0  0  0  0  0  0
 -106.3805  -19.2739  -76.0766 H   0  0  0  0  0  0  0  0  0  0  0  0
 -106.8370  -18.8684  -73.7936 H   0  0  0  0  0  0  0  0  0  0  0  0
 -103.9836  -18.2963  -74.1859 H   0  0  0  0  0  0  0  0  0  0  0  0
 -104.6825  -19.8701  -74.4804 H   0  0  0  0  0  0  0  0  0  0  0  0
 -104.2668  -20.2494  -72.2863 H   0  0  0  0  0  0  0  0  0  0  0  0
 -105.6792  -19.2612  -72.0023 H   0  0  0  0  0  0  0  0  0  0  0  0
 -104.2430  -17.6477  -71.0853 H   0  0  0  0  0  0  0  0  0  0  0  0
 -102.1654  -20.2406  -71.7992 H   0  0  0  0  0  0  0  0  0  0  0  0
  -99.7550  -20.0401  -72.0583 H   0  0  0  0  0  0  0  0  0  0  0  0
 -104.7507  -14.3219  -72.2087 H   0  0  0  0  0  0  0  0  0  0  0  0
 -102.9842  -11.2475  -72.4735 H   0  0  0  0  0  0  0  0  0  0  0  0
 -100.5741  -11.0464  -72.7261 H   0  0  0  0  0  0  0  0  0  0  0  0
  -98.4487  -12.1694  -72.9001 H   0  0  0  0  0  0  0  0  0  0  0  0
  -97.9266  -17.4221  -71.7015 H   0  0  0  0  0  0  0  0  0  0  0  0
  -98.4893  -18.5814  -74.3944 H   0  0  0  0  0  0  0  0  0  0  0  0
  -97.1697  -19.1772  -73.4157 H   0  0  0  0  0  0  0  0  0  0  0  0
  -97.4372  -16.3432  -74.4168 H   0  0  0  0  0  0  0  0  0  0  0  0
  -96.3850  -17.5531  -75.1089 H   0  0  0  0  0  0  0  0  0  0  0  0
  -95.4696  -17.7437  -72.7666 H   0  0  0  0  0  0  0  0  0  0  0  0
  -95.0142  -15.2432  -74.2473 H   0  0  0  0  0  0  0  0  0  0  0  0
  -94.3031  -16.7825  -74.6642 H   0  0  0  0  0  0  0  0  0  0  0  0
  -93.8294  -16.3951  -71.9078 H   0  0  0  0  0  0  0  0  0  0  0  0
  -93.4260  -14.8910  -72.6997 H   0  0  0  0  0  0  0  0  0  0  0  0
  -92.4766  -17.4717  -73.4431 H   0  0  0  0  0  0  0  0  0  0  0  0
  1  2  1  0  0  0  0
  1 33  1  0  0  0  0
  2  3  1  0  0  0  0
  2 34  1  0  0  0  0
  2 35  1  0  0  0  0
  3  4  1  0  0  0  0
  3 36  1  0  0  0  0
  3 37  1  0  0  0  0
  4  5  1  0  0  0  0
  4 38  1  0  0  0  0
  5  6  1  0  0  0  0
  5 39  1  0  0  0  0
  5 40  1  0  0  0  0
  6  7  1  0  0  0  0
  6 41  1  0  0  0  0
  6 42  1  0  0  0  0
  7  8  1  0  0  0  0
  7 43  1  0  0  0  0
  8  9  2  0  0  0  0
  8 11  1  0  0  0  0
  9 10  1  0  0  0  0
  9 44  1  0  0  0  0
 10 25  2  0  0  0  0
 10 45  1  0  0  0  0
 11 12  1  0  0  0  0
 11 24  2  0  0  0  0
 12 13  2  0  0  0  0
 12 14  1  0  0  0  0
 14 15  1  0  0  0  0
 14 21  2  0  0  0  0
 15 16  1  0  0  0  0
 15 17  2  0  0  0  0
 16 46  1  0  0  0  0
 17 18  1  0  0  0  0
 17 47  1  0  0  0  0
 18 19  2  0  0  0  0
 18 48  1  0  0  0  0
 19 20  1  0  0  0  0
 19 21  1  0  0  0  0
 20 49  1  0  0  0  0
 21 22  1  0  0  0  0
 22 23  2  0  0  0  0
 22 24  1  0  0  0  0
 24 25  1  0  0  0  0
 25 26  1  0  0  0  0
 26 27  1  0  0  0  0
 26 50  1  0  0  0  0
 27 28  1  0  0  0  0
 27 51  1  0  0  0  0
 27 52  1  0  0  0  0
 28 29  1  0  0  0  0
 28 53  1  0  0  0  0
 28 54  1  0  0  0  0
 29 30  1  0  0  0  0
 29 55  1  0  0  0  0
 30 31  1  0  0  0  0
 30 56  1  0  0  0  0
 30 57  1  0  0  0  0
 31 32  1  0  0  0  0
 31 58  1  0  0  0  0
 31 59  1  0  0  0  0
 32 60  1  0  0  0  0
A    1
OAC
A    2
CAK
A    3
CAM
A    4
NAS
A    5
CAO
A    6
CAQ
A    7
NAU
A    8
CAY
A    9
CAI
A   10
CAJ
A   11
CBE
A   12
CBA
A   13
OAA
A   14
CBC
A   15
CAW
A   16
OAE
A   17
CAG
A   18
CAH
A   19
CAX
A   20
OAF
A   21
CBD
A   22
CBB
A   23
OAB
A   24
CBF
A   25
CAZ
A   26
NAV
A   27
CAR
A   28
CAP
A   29
NAT
A   30
CAN
A   31
CAL
A   32
OAD
M  END
>  <InstanceId>
2KGP_MIX_A_26

>  <ChemCompId>
MIX

>  <PdbId>
2KGP

>  <ChainId>
A

>  <ResidueNumber>
26

>  <InsertionCode>


>  <Model>
1

>  <AltIds>


>  <MissingHeavyAtoms>
0

>  <ObservedFormula>
C22 N4 O6

>  <Name>
1,4-DIHYDROXY-5,8-BIS({2-[(2-HYDROXYETHYL)AMINO]ETHYL}AMINO)-9,10-ANTHRACENEDIONE

>  <SystematicName>
1,4-dihydroxy-5,8-bis[2-(2-hydroxyethylamino)ethylamino]anthracene-9,10-dione

>  <Synonyms>
MITOXANTRONE, 1,4-DIHYDROXY-5,8-BIS({2-[(2-HYDROXYETHYL)AMINO]ETHYL}AMINO)ANTHRA-9,10-QUINONE

>  <Type>
NON-POLYMER

>  <Formula>
C22 H28 N4 O6

>  <MolecularWeight>
444.481

>  <ModifiedDate>
2011-06-04

>  <Parent>


>  <OneLetterCode>


>  <SubcomponentList>


>  <AmbiguousFlag>
N

>  <InChI>
InChI=1S/C22H28N4O6/c27-11-9-23-5-7-25-13-1-2-14(26-8-6-24-10-12-28)18-17(13)21(31)19-15(29)3-4-16(30)20(19)22(18)32/h1-4,23-30H,5-12H2

>  <InChIKey>
KKZJGLLVHKMTCM-UHFFFAOYSA-N

>  <SMILES>
c1cc(c2c(c1NCCNCCO)C(=O)c3c(ccc(c3C2=O)O)O)NCCNCCO

$$$$
