@<TRIPOS>MOLECULE
1RAW_AMP_A_37
 37 39 0 0 0
SMALL
GASTEIGER

@<TRIPOS>ATOM
      1 P          -2.5510    3.1163    0.8815 P.3     1  UNL1        0.4724
      2 O          -3.3301    4.0248   -0.0276 O.2     1  UNL1       -0.2275
      3 O          -3.3661    2.5811    2.1711 O.3     1  UNL1       -0.3026
      4 O          -1.2302    3.7849    1.5336 O.3     1  UNL1       -0.3026
      5 O          -1.9898    1.7571    0.2045 O.3     1  UNL1       -0.2841
      6 C          -2.7200    1.2004   -0.8761 C.3     1  UNL1        0.0878
      7 C          -2.2306   -0.1942   -1.2282 C.3     1  UNL1        0.1134
      8 H          -2.6477   -0.4649   -2.2068 H       1  UNL1        0.0647
      9 O          -0.7981   -0.2342   -1.3387 O.3     1  UNL1       -0.3456
     10 C          -0.3551   -1.5787   -1.0186 C.3     1  UNL1        0.1667
     11 H           0.1194   -2.0034   -1.9149 H       1  UNL1        0.0866
     12 C          -1.6052   -2.3539   -0.5955 C.3     1  UNL1        0.1285
     13 H          -1.4837   -3.0986    0.1903 H       1  UNL1        0.0665
     14 C          -2.5544   -1.2435   -0.1829 C.3     1  UNL1        0.1135
     15 H          -2.3175   -0.8927    0.8272 H       1  UNL1        0.0647
     16 O          -3.9156   -1.6290   -0.2245 O.3     1  UNL1       -0.3864
     17 O          -2.1273   -3.0212   -1.7469 O.3     1  UNL1       -0.3847
     18 N           0.7117   -1.4611   -0.0129 N.ar    1  UNL1       -0.2855
     19 C           1.8003   -0.6236   -0.2366 C.ar    1  UNL1        0.1004
     20 N           2.7754   -0.8560    0.6152 N.ar    1  UNL1       -0.2306
     21 C           2.5238   -2.1244    1.0700 C.ar    1  UNL1        0.1473
     22 C           3.2623   -2.9882    1.8999 C.ar    1  UNL1        0.1472
     23 N           4.5212   -2.6384    2.4157 N.pl3   1  UNL1       -0.3413
     24 N           2.7545   -4.2415    2.1000 N.ar    1  UNL1       -0.2188
     25 C           1.5027   -4.4981    1.6614 C.ar    1  UNL1        0.1205
     26 N           0.6293   -3.6201    1.1385 N.ar    1  UNL1       -0.2159
     27 C           1.2782   -2.5559    0.6239 C.ar    1  UNL1        0.1674
     28 H          -2.8839    2.4584    3.0157 H       1  UNL1        0.2220
     29 H          -1.0359    4.7266    1.3385 H       1  UNL1        0.2220
     30 H          -2.6090    1.8642   -1.7376 H       1  UNL1        0.0592
     31 H          -3.7782    1.1744   -0.6057 H       1  UNL1        0.0592
     32 H          -4.0381   -2.2196   -0.9866 H       1  UNL1        0.2100
     33 H          -1.5015   -3.7316   -1.9762 H       1  UNL1        0.2101
     34 H           1.6971    0.2845   -0.8125 H       1  UNL1        0.1030
     35 H           4.4681   -2.4863    3.4204 H       1  UNL1        0.1438
     36 H           4.9083   -1.8150    1.9598 H       1  UNL1        0.1438
     37 H           1.1145   -5.4825    1.9031 H       1  UNL1        0.1048
@<TRIPOS>BOND
     1     2     1    2
     2     3     1    1
     3     4     1    1
     4     5     1    1
     5     6     5    1
     6     7     6    1
     7     7     8    1
     8     9     7    1
     9    10     9    1
    10    10    11    1
    11    12    10    1
    12    12    13    1
    13    14    12    1
    14    14    15    1
    15    14     7    1
    16    16    14    1
    17    17    12    1
    18    18    10    1
    19    19    18   ar
    20    20    19   ar
    21    21    20   ar
    22    22    21   ar
    23    23    22    1
    24    24    22   ar
    25    25    24   ar
    26    26    25   ar
    27    27    26   ar
    28    27    18   ar
    29    27    21   ar
    30     3    28    1
    31     4    29    1
    32     6    30    1
    33     6    31    1
    34    16    32    1
    35    17    33    1
    36    19    34    1
    37    23    35    1
    38    23    36    1
    39    25    37    1
