REMARK  9 active torsions:
REMARK  status: ('A' for Active; 'I' for Inactive)
REMARK    1  A    between atoms: O_3  and  P_1 
REMARK    2  A    between atoms: O_4  and  P_1 
REMARK    3  A    between atoms: O_5  and  P_1 
REMARK    4  A    between atoms: C_6  and  O_5 
REMARK    5  A    between atoms: C_7  and  C_6 
REMARK    6  A    between atoms: N_14  and  C_9 
REMARK    7  A    between atoms: O_13  and  C_10 
REMARK    8  A    between atoms: O_12  and  C_11 
REMARK    9  A    between atoms: N_19  and  C_18 
ROOT
ATOM      1  C   UNL d   1      -2.231  -0.194  -1.228  0.00  0.00     0.180 C 
ATOM      2  O   UNL d   1      -0.798  -0.234  -1.339  0.00  0.00    -0.353 OA
ATOM      3  C   UNL d   1      -0.355  -1.579  -1.019  0.00  0.00     0.262 C 
ATOM      4  C   UNL d   1      -1.605  -2.354  -0.596  0.00  0.00     0.198 C 
ATOM      5  C   UNL d   1      -2.554  -1.244  -0.183  0.00  0.00     0.182 C 
ENDROOT
BRANCH   3   6
ATOM      6  N   UNL d   1       0.712  -1.461  -0.013  0.00  0.00    -0.294 N 
ATOM      7  C   UNL d   1       1.800  -0.624  -0.237  0.00  0.00     0.214 C 
ATOM      8  N   UNL d   1       2.775  -0.856   0.615  0.00  0.00    -0.236 NA
ATOM      9  C   UNL d   1       2.524  -2.124   1.070  0.00  0.00     0.144 C 
ATOM     10  C   UNL d   1       3.262  -2.988   1.900  0.00  0.00     0.135 C 
ATOM     11  C   UNL d   1       1.278  -2.556   0.624  0.00  0.00     0.166 C 
ATOM     12  N   UNL d   1       2.755  -4.242   2.100  0.00  0.00    -0.228 NA
ATOM     13  C   UNL d   1       1.503  -4.498   1.661  0.00  0.00     0.237 C 
ATOM     14  N   UNL d   1       0.629  -3.620   1.139  0.00  0.00    -0.222 NA
BRANCH  10  15
ATOM     15  N   UNL d   1       4.521  -2.638   2.416  0.00  0.00    -0.285 NA
ATOM     16  H   UNL d   1       4.468  -2.486   3.420  0.00  0.00     0.125 HD
ATOM     17  H   UNL d   1       4.908  -1.815   1.960  0.00  0.00     0.125 HD
ENDBRANCH  10  15
ENDBRANCH   3   6
BRANCH   4  18
ATOM     18  O   UNL d   1      -2.127  -3.021  -1.747  0.00  0.00    -0.388 OA
ATOM     19  H   UNL d   1      -1.502  -3.732  -1.976  0.00  0.00     0.210 HD
ENDBRANCH   4  18
BRANCH   1  20
ATOM     20  C   UNL d   1      -2.720   1.200  -0.876  0.00  0.00     0.215 C 
BRANCH  20  21
ATOM     21  O   UNL d   1      -1.990   1.757   0.204  0.00  0.00    -0.294 OA
BRANCH  21  22
ATOM     22  P   UNL d   1      -2.551   3.116   0.881  0.00  0.00     0.390 P 
ATOM     23  O   UNL d   1      -3.330   4.025  -0.028  0.00  0.00    -0.632 OA
BRANCH  22  24
ATOM     24  O   UNL d   1      -3.366   2.581   2.171  0.00  0.00    -0.307 OA
ATOM     25  H   UNL d   1      -2.884   2.458   3.016  0.00  0.00     0.222 HD
ENDBRANCH  22  24
BRANCH  22  26
ATOM     26  O   UNL d   1      -1.230   3.785   1.534  0.00  0.00    -0.307 OA
ATOM     27  H   UNL d   1      -1.036   4.727   1.339  0.00  0.00     0.222 HD
ENDBRANCH  22  26
ENDBRANCH  21  22
ENDBRANCH  20  21
ENDBRANCH   1  20
BRANCH   5  28
ATOM     28  O   UNL d   1      -3.916  -1.629  -0.225  0.00  0.00    -0.390 OA
ATOM     29  H   UNL d   1      -4.038  -2.220  -0.987  0.00  0.00     0.210 HD
ENDBRANCH   5  28
TORSDOF 9
