1RAW_AMP_A_37
  1228              3D

 37 39  0  0  0  0  0  0  0  0999 V2000
   -2.5510    3.1163    0.8815 P   0  0  0  0  0  0  0  0  0  0  0  0
   -3.3301    4.0248   -0.0276 O   0  0  0  0  0  0  0  0  0  0  0  0
   -3.3661    2.5811    2.1711 O   0  0  0  0  0  0  0  0  0  0  0  0
   -1.2302    3.7849    1.5336 O   0  0  0  0  0  0  0  0  0  0  0  0
   -1.9898    1.7571    0.2045 O   0  0  0  0  0  0  0  0  0  0  0  0
   -2.7200    1.2004   -0.8761 C   0  0  0  0  0  0  0  0  0  0  0  0
   -2.2306   -0.1942   -1.2282 C   0  0  0  0  0  0  0  0  0  0  0  0
   -2.6477   -0.4649   -2.2068 H   0  0  0  0  0  0  0  0  0  0  0  0
   -0.7981   -0.2342   -1.3387 O   0  0  0  0  0  0  0  0  0  0  0  0
   -0.3551   -1.5787   -1.0186 C   0  0  0  0  0  0  0  0  0  0  0  0
    0.1194   -2.0034   -1.9149 H   0  0  0  0  0  0  0  0  0  0  0  0
   -1.6052   -2.3539   -0.5955 C   0  0  0  0  0  0  0  0  0  0  0  0
   -1.4837   -3.0986    0.1903 H   0  0  0  0  0  0  0  0  0  0  0  0
   -2.5544   -1.2435   -0.1829 C   0  0  0  0  0  0  0  0  0  0  0  0
   -2.3175   -0.8927    0.8272 H   0  0  0  0  0  0  0  0  0  0  0  0
   -3.9156   -1.6290   -0.2245 O   0  0  0  0  0  0  0  0  0  0  0  0
   -2.1273   -3.0212   -1.7469 O   0  0  0  0  0  0  0  0  0  0  0  0
    0.7117   -1.4611   -0.0129 N   0  0  0  0  0  0  0  0  0  0  0  0
    1.8003   -0.6236   -0.2366 C   0  0  0  0  0  0  0  0  0  0  0  0
    2.7754   -0.8560    0.6152 N   0  0  0  0  0  0  0  0  0  0  0  0
    2.5238   -2.1244    1.0700 C   0  0  0  0  0  0  0  0  0  0  0  0
    3.2623   -2.9882    1.8999 C   0  0  0  0  0  0  0  0  0  0  0  0
    4.5212   -2.6384    2.4157 N   0  0  0  0  0  0  0  0  0  0  0  0
    2.7545   -4.2415    2.1000 N   0  0  0  0  0  0  0  0  0  0  0  0
    1.5027   -4.4981    1.6614 C   0  0  0  0  0  0  0  0  0  0  0  0
    0.6293   -3.6201    1.1385 N   0  0  0  0  0  0  0  0  0  0  0  0
    1.2782   -2.5559    0.6239 C   0  0  0  0  0  0  0  0  0  0  0  0
   -2.8839    2.4584    3.0157 H   0  0  0  0  0  0  0  0  0  0  0  0
   -1.0359    4.7266    1.3385 H   0  0  0  0  0  0  0  0  0  0  0  0
   -2.6090    1.8642   -1.7376 H   0  0  0  0  0  0  0  0  0  0  0  0
   -3.7782    1.1744   -0.6057 H   0  0  0  0  0  0  0  0  0  0  0  0
   -4.0381   -2.2196   -0.9866 H   0  0  0  0  0  0  0  0  0  0  0  0
   -1.5015   -3.7316   -1.9762 H   0  0  0  0  0  0  0  0  0  0  0  0
    1.6971    0.2845   -0.8125 H   0  0  0  0  0  0  0  0  0  0  0  0
    4.4681   -2.4863    3.4204 H   0  0  0  0  0  0  0  0  0  0  0  0
    4.9083   -1.8150    1.9598 H   0  0  0  0  0  0  0  0  0  0  0  0
    1.1145   -5.4825    1.9031 H   0  0  0  0  0  0  0  0  0  0  0  0
  2  1  2  0  0  0  0
  3  1  1  0  0  0  0
  4  1  1  0  0  0  0
  5  1  1  0  0  0  0
  6  5  1  0  0  0  0
  7  6  1  0  0  0  0
  7  8  1  0  0  0  0
  9  7  1  0  0  0  0
 10  9  1  0  0  0  0
 10 11  1  0  0  0  0
 12 10  1  0  0  0  0
 12 13  1  0  0  0  0
 14 12  1  0  0  0  0
 14 15  1  0  0  0  0
 14  7  1  0  0  0  0
 16 14  1  0  0  0  0
 17 12  1  0  0  0  0
 18 10  1  0  0  0  0
 19 18  1  0  0  0  0
 20 19  2  0  0  0  0
 21 20  1  0  0  0  0
 22 21  1  0  0  0  0
 23 22  1  0  0  0  0
 24 22  2  0  0  0  0
 25 24  1  0  0  0  0
 26 25  2  0  0  0  0
 27 26  1  0  0  0  0
 27 18  1  0  0  0  0
 27 21  2  0  0  0  0
  3 28  1  0  0  0  0
  4 29  1  0  0  0  0
  6 30  1  0  0  0  0
  6 31  1  0  0  0  0
 16 32  1  0  0  0  0
 17 33  1  0  0  0  0
 19 34  1  0  0  0  0
 23 35  1  0  0  0  0
 23 36  1  0  0  0  0
 25 37  1  0  0  0  0
M  END
>  <energy>
48.704679387399651

$$$$
