@<TRIPOS>MOLECULE
3DW4_GOL_A_1
 14 13 0 0 0
SMALL
GASTEIGER

@<TRIPOS>ATOM
      1 C          -1.0893    0.2871   -0.4614 C.3     1  UNL1        0.0723
      2 O          -2.2621   -0.5183   -0.4937 O.3     1  UNL1       -0.3924
      3 C           0.1174   -0.5546   -0.0563 C.3     1  UNL1        0.1012
      4 O           1.2250    0.3149    0.1694 O.3     1  UNL1       -0.3873
      5 C           0.5102   -1.5539   -1.1385 C.3     1  UNL1        0.0723
      6 O           1.3847   -2.5334   -0.5928 O.3     1  UNL1       -0.3924
      7 H          -0.9544    0.7275   -1.4551 H       1  UNL1        0.0583
      8 H          -1.2560    1.1006    0.2533 H       1  UNL1        0.0583
      9 H          -2.3454   -0.9481    0.3747 H       1  UNL1        0.2095
     10 H          -0.0951   -1.0750    0.8866 H       1  UNL1        0.0639
     11 H           1.0556    0.7798    1.0073 H       1  UNL1        0.2100
     12 H          -0.3645   -2.0708   -1.5472 H       1  UNL1        0.0583
     13 H           1.0334   -1.0620   -1.9654 H       1  UNL1        0.0583
     14 H           0.9019   -2.9874    0.1192 H       1  UNL1        0.2095
@<TRIPOS>BOND
     1     2     1    1
     2     3     1    1
     3     4     3    1
     4     5     3    1
     5     6     5    1
     6     1     7    1
     7     1     8    1
     8     2     9    1
     9     3    10    1
    10     4    11    1
    11     5    12    1
    12     5    13    1
    13     6    14    1
