REMARK  5 active torsions:
REMARK  status: ('A' for Active; 'I' for Inactive)
REMARK    1  A    between atoms: O_2  and  C_1 
REMARK    2  A    between atoms: C_3  and  C_1 
REMARK    3  A    between atoms: O_4  and  C_3 
REMARK    4  A    between atoms: C_5  and  C_3 
REMARK    5  A    between atoms: O_6  and  C_5 
ROOT
ATOM      1  C   UNL d   1       0.117  -0.555  -0.056  0.00  0.00     0.165 C 
ENDROOT
BRANCH   1   2
ATOM      2  C   UNL d   1      -1.089   0.287  -0.461  0.00  0.00     0.198 C 
BRANCH   2   3
ATOM      3  O   UNL d   1      -2.262  -0.518  -0.494  0.00  0.00    -0.398 OA
ATOM      4  H   UNL d   1      -2.345  -0.948   0.375  0.00  0.00     0.209 HD
ENDBRANCH   2   3
ENDBRANCH   1   2
BRANCH   1   5
ATOM      5  O   UNL d   1       1.225   0.315   0.169  0.00  0.00    -0.391 OA
ATOM      6  H   UNL d   1       1.056   0.780   1.007  0.00  0.00     0.210 HD
ENDBRANCH   1   5
BRANCH   1   7
ATOM      7  C   UNL d   1       0.510  -1.554  -1.139  0.00  0.00     0.198 C 
BRANCH   7   8
ATOM      8  O   UNL d   1       1.385  -2.533  -0.593  0.00  0.00    -0.398 OA
ATOM      9  H   UNL d   1       0.902  -2.987   0.119  0.00  0.00     0.209 HD
ENDBRANCH   7   8
ENDBRANCH   1   7
TORSDOF 5
