3LA5_5AZ_A_84
 OpenBabel10091713573D
Coordinates from PDB:3LA5:A:84 Model:1 without hydrogens
 12 12  0  0  0  0  0  0  0  0999 V2000
   11.0480   13.1520    0.6290 C   0  0  0  0  0  0  0  0  0  0  0  0
   11.0290   12.4190    1.7420 N   0  0  0  0  0  0  0  0  0  0  0  0
   10.4680   11.2070    1.7260 C   0  0  0  0  0  0  0  0  0  0  0  0
    9.9350   10.7180    0.5820 N   0  0  0  0  0  0  0  0  0  0  0  0
    9.9550   11.4690   -0.5320 C   0  0  0  0  0  0  0  0  0  0  0  0
   10.5160   12.6880   -0.5140 N   0  0  0  0  0  0  0  0  0  0  0  0
   10.4620   10.4230    2.9790 N   0  0  0  0  0  0  0  0  0  0  0  0
   11.6260   14.3740    0.6840 O   0  0  0  0  0  0  0  0  0  0  0  0
   11.4265   12.7692    2.5718 H   0  0  0  0  0  0  0  0  0  0  0  0
    9.5378   11.1074   -1.4039 H   0  0  0  0  0  0  0  0  0  0  0  0
   10.8561   10.8011    3.7981 H   0  0  0  0  0  0  0  0  0  0  0  0
   10.0639    9.5227    2.9945 H   0  0  0  0  0  0  0  0  0  0  0  0
  1  2  1  0  0  0  0
  1  6  1  0  0  0  0
  1  8  2  0  0  0  0
  2  3  1  0  0  0  0
  2  9  1  0  0  0  0
  3  4  2  0  0  0  0
  3  7  1  0  0  0  0
  4  5  1  0  0  0  0
  5  6  2  0  0  0  0
  5 10  1  0  0  0  0
  7 11  1  0  0  0  0
  7 12  1  0  0  0  0
A    1
C1
A    2
N2
A    3
C3
A    4
N4
A    5
C5
A    6
N6
A    7
N7
A    8
O8
M  END
>  <InstanceId>
3LA5_5AZ_A_84

>  <ChemCompId>
5AZ

>  <PdbId>
3LA5

>  <ChainId>
A

>  <ResidueNumber>
84

>  <InsertionCode>


>  <Model>
1

>  <AltIds>


>  <MissingHeavyAtoms>
0

>  <ObservedFormula>
C3 N4 O

>  <Name>
6-amino-1,3,5-triazin-2(1H)-one

>  <SystematicName>
6-azanyl-1H-1,3,5-triazin-2-one

>  <Synonyms>
5-Azacytosine

>  <Type>
NON-POLYMER

>  <Formula>
C3 H4 N4 O

>  <MolecularWeight>
112.09

>  <ModifiedDate>
2011-06-04

>  <Parent>


>  <OneLetterCode>


>  <SubcomponentList>


>  <AmbiguousFlag>
N

>  <InChI>
InChI=1S/C3H4N4O/c4-2-5-1-6-3(8)7-2/h1H,(H3,4,5,6,7,8)

>  <InChIKey>
MFEFTTYGMZOIKO-UHFFFAOYSA-N

>  <SMILES>
C1=NC(=O)NC(=N1)N

$$$$
