@<TRIPOS>MOLECULE
3DVV_RIO_A_27
 65 67 0 0 0
SMALL
GASTEIGER

@<TRIPOS>ATOM
      1 O           2.9360    5.3805    8.8664 O.3     1  UNL1       -0.3924
      2 C           1.8296    4.5575    8.5101 C.3     1  UNL1        0.0730
      3 C           1.0570    5.1666    7.3326 C.3     1  UNL1        0.1131
      4 H           0.7998    6.2041    7.5843 H       1  UNL1        0.0647
      5 O           1.8334    5.1722    6.1120 O.3     1  UNL1       -0.3405
      6 C           0.8785    5.3820    5.0482 C.3     1  UNL1        0.1884
      7 H           0.7801    6.4580    4.8750 H       1  UNL1        0.0938
      8 O           1.2377    4.7100    3.8395 O.3     1  UNL1       -0.3402
      9 C           2.2749    5.2732    2.9906 C.3     1  UNL1        0.1166
     10 H           2.4163    4.4659    2.2823 H       1  UNL1        0.0650
     11 C           3.6427    5.3283    3.6860 C.3     1  UNL1        0.0990
     12 H           3.6105    5.9131    4.6073 H       1  UNL1        0.0636
     13 O           4.0316    3.9883    4.0457 O.3     1  UNL1       -0.3876
     14 C           4.6993    5.8984    2.7244 C.3     1  UNL1        0.0351
     15 H           4.7142    5.3003    1.8015 H       1  UNL1        0.0485
     16 N           6.0555    5.8175    3.2758 N.3     1  UNL1       -0.3250
     17 C           4.3339    7.3462    2.3933 C.3     1  UNL1       -0.0175
     18 C           3.0596    7.3514    1.5498 C.3     1  UNL1        0.0355
     19 H           3.3804    6.9185    0.6048 H       1  UNL1        0.0485
     20 N           2.6571    8.7249    1.2132 N.3     1  UNL1       -0.3250
     21 C           1.8549    6.5296    2.1513 C.3     1  UNL1        0.1055
     22 H           1.3184    7.1977    2.8391 H       1  UNL1        0.0639
     23 O           0.8516    6.2117    1.1180 O.3     1  UNL1       -0.3422
     24 C           1.3411    5.4965   -0.0348 C.3     1  UNL1        0.1776
     25 H           2.2476    5.9590   -0.4136 H       1  UNL1        0.0927
     26 O           1.6791    4.1558    0.3056 O.3     1  UNL1       -0.3425
     27 C           0.5370    3.3868    0.7020 C.3     1  UNL1        0.1022
     28 H          -0.0268    3.9086    1.4884 H       1  UNL1        0.0636
     29 C           1.0863    2.0842    1.3138 C.3     1  UNL1        0.0222
     30 N           0.0605    1.1559    1.7830 N.3     1  UNL1       -0.3276
     31 C          -0.3659    3.1807   -0.5191 C.3     1  UNL1        0.1100
     32 H           0.1699    2.6162   -1.2928 H       1  UNL1        0.0646
     33 O          -1.5719    2.4677   -0.2160 O.3     1  UNL1       -0.3866
     34 C          -0.7900    4.5465   -1.0847 C.3     1  UNL1        0.1033
     35 H          -1.5370    5.0055   -0.4265 H       1  UNL1        0.0637
     36 O          -1.4408    4.3457   -2.3567 O.3     1  UNL1       -0.3874
     37 C           0.4083    5.4856   -1.2792 C.3     1  UNL1        0.0853
     38 H           0.9992    5.0556   -2.1010 H       1  UNL1        0.0535
     39 N          -0.0056    6.8228   -1.7607 N.3     1  UNL1       -0.3211
     40 C          -0.4678    4.7904    5.5549 C.3     1  UNL1        0.1341
     41 H          -0.8225    3.9494    4.9602 H       1  UNL1        0.0671
     42 O          -1.5153    5.7750    5.5874 O.3     1  UNL1       -0.3841
     43 C          -0.1739    4.3464    6.9842 C.3     1  UNL1        0.1141
     44 H           0.0755    3.2771    6.9946 H       1  UNL1        0.0648
     45 O          -1.2563    4.5570    7.8752 O.3     1  UNL1       -0.3864
     46 H           3.5122    5.4371    8.0823 H       1  UNL1        0.2095
     47 H           1.1835    4.4640    9.3936 H       1  UNL1        0.0584
     48 H           2.2166    3.5638    8.2602 H       1  UNL1        0.0584
     49 H           3.2262    3.5553    4.3866 H       1  UNL1        0.2100
     50 H           6.2104    4.8328    3.5192 H       1  UNL1        0.1185
     51 H           6.0982    6.3082    4.1700 H       1  UNL1        0.1185
     52 H           5.1443    7.8164    1.8209 H       1  UNL1        0.0297
     53 H           4.2002    7.9369    3.3076 H       1  UNL1        0.0297
     54 H           3.4036    9.1831    0.6875 H       1  UNL1        0.1185
     55 H           2.5176    9.2827    2.0520 H       1  UNL1        0.1185
     56 H           1.7373    2.3357    2.1652 H       1  UNL1        0.0448
     57 H           1.7443    1.5874    0.5893 H       1  UNL1        0.0448
     58 H          -0.3418    1.5222    2.6492 H       1  UNL1        0.1183
     59 H           0.5350    0.2939    2.0703 H       1  UNL1        0.1183
     60 H          -1.3667    1.8745    0.5374 H       1  UNL1        0.2100
     61 H          -1.9333    3.5054   -2.2656 H       1  UNL1        0.2100
     62 H          -0.5190    7.2951   -1.0163 H       1  UNL1        0.1187
     63 H          -0.6779    6.6704   -2.5156 H       1  UNL1        0.1187
     64 H          -1.7792    5.9316    4.6606 H       1  UNL1        0.2101
     65 H          -1.8606    5.1868    7.4264 H       1  UNL1        0.2100
@<TRIPOS>BOND
     1     1     2    1
     2     1    46    1
     3     2     3    1
     4     2    47    1
     5     2    48    1
     6     3     4    1
     7     3     5    1
     8     3    43    1
     9     5     6    1
    10     6    40    1
    11     6     8    1
    12     6     7    1
    13     9    11    1
    14     9    10    1
    15     9     8    1
    16    11    12    1
    17    11    13    1
    18    11    14    1
    19    13    49    1
    20    14    15    1
    21    14    16    1
    22    14    17    1
    23    16    50    1
    24    16    51    1
    25    17    18    1
    26    17    52    1
    27    17    53    1
    28    18    19    1
    29    18    20    1
    30    18    21    1
    31    20    54    1
    32    20    55    1
    33    21     9    1
    34    21    23    1
    35    21    22    1
    36    23    24    1
    37    24    25    1
    38    24    26    1
    39    24    37    1
    40    26    27    1
    41    27    28    1
    42    27    29    1
    43    27    31    1
    44    29    30    1
    45    29    56    1
    46    29    57    1
    47    30    58    1
    48    30    59    1
    49    31    33    1
    50    31    32    1
    51    33    60    1
    52    34    31    1
    53    34    35    1
    54    34    36    1
    55    36    61    1
    56    37    34    1
    57    37    39    1
    58    37    38    1
    59    39    62    1
    60    39    63    1
    61    40    41    1
    62    40    42    1
    63    40    43    1
    64    42    64    1
    65    43    44    1
    66    43    45    1
    67    45    65    1
