REMARK  16 active torsions:
REMARK  status: ('A' for Active; 'I' for Inactive)
REMARK    1  A    between atoms: O_1  and  C_2 
REMARK    2  A    between atoms: C_2  and  C_3 
REMARK    3  A    between atoms: C_5  and  O_6 
REMARK    4  A    between atoms: C_7  and  O_6 
REMARK    5  A    between atoms: C_8  and  O_9 
REMARK    6  A    between atoms: C_10  and  N_11 
REMARK    7  A    between atoms: C_13  and  N_14 
REMARK    8  A    between atoms: C_15  and  O_16 
REMARK    9  A    between atoms: O_16  and  C_17 
REMARK   10  A    between atoms: C_19  and  C_20 
REMARK   11  A    between atoms: C_20  and  N_21 
REMARK   12  A    between atoms: C_22  and  O_23 
REMARK   13  A    between atoms: C_24  and  O_25 
REMARK   14  A    between atoms: C_26  and  N_27 
REMARK   15  A    between atoms: C_28  and  O_29 
REMARK   16  A    between atoms: C_30  and  O_31 
ROOT
ATOM      1  C   UNL d   1       2.275   5.273   2.991  0.00  0.00     0.186 C 
ATOM      2  C   UNL d   1       3.643   5.328   3.686  0.00  0.00     0.182 C 
ATOM      3  C   UNL d   1       4.699   5.898   2.724  0.00  0.00     0.251 C 
ATOM      4  C   UNL d   1       4.334   7.346   2.393  0.00  0.00     0.076 C 
ATOM      5  C   UNL d   1       3.060   7.351   1.550  0.00  0.00     0.251 C 
ATOM      6  C   UNL d   1       1.855   6.530   2.151  0.00  0.00     0.189 C 
ENDROOT
BRANCH   6   7
ATOM      7  O   UNL d   1       0.852   6.212   1.118  0.00  0.00    -0.349 OA
BRANCH   7   8
ATOM      8  C   UNL d   1       1.341   5.497  -0.035  0.00  0.00     0.296 C 
ATOM      9  O   UNL d   1       1.679   4.156   0.306  0.00  0.00    -0.349 OA
ATOM     10  C   UNL d   1       0.537   3.387   0.702  0.00  0.00     0.183 C 
ATOM     11  C   UNL d   1      -0.366   3.181  -0.519  0.00  0.00     0.179 C 
ATOM     12  C   UNL d   1      -0.790   4.546  -1.085  0.00  0.00     0.187 C 
ATOM     13  C   UNL d   1       0.408   5.486  -1.279  0.00  0.00     0.303 C 
BRANCH  10  14
ATOM     14  C   UNL d   1       1.086   2.084   1.314  0.00  0.00     0.301 C 
BRANCH  14  15
ATOM     15  N   UNL d   1       0.060   1.156   1.783  0.00  0.00     0.080 N 
ATOM     16  H   UNL d   1      -0.342   1.522   2.649  0.00  0.00     0.312 HD
ATOM     17  H   UNL d   1       0.535   0.294   2.070  0.00  0.00     0.312 HD
ENDBRANCH  14  15
ENDBRANCH  10  14
BRANCH  11  18
ATOM     18  O   UNL d   1      -1.572   2.468  -0.216  0.00  0.00    -0.390 OA
ATOM     19  H   UNL d   1      -1.367   1.875   0.537  0.00  0.00     0.210 HD
ENDBRANCH  11  18
BRANCH  12  20
ATOM     20  O   UNL d   1      -1.441   4.346  -2.357  0.00  0.00    -0.391 OA
ATOM     21  H   UNL d   1      -1.933   3.505  -2.266  0.00  0.00     0.210 HD
ENDBRANCH  12  20
BRANCH  13  22
ATOM     22  N   UNL d   1      -0.006   6.823  -1.761  0.00  0.00     0.090 N 
ATOM     23  H   UNL d   1      -0.519   7.295  -1.016  0.00  0.00     0.313 HD
ATOM     24  H   UNL d   1      -0.678   6.670  -2.516  0.00  0.00     0.313 HD
ENDBRANCH  13  22
ENDBRANCH   7   8
ENDBRANCH   6   7
BRANCH   5  25
ATOM     25  N   UNL d   1       2.657   8.725   1.213  0.00  0.00     0.085 N 
ATOM     26  H   UNL d   1       3.404   9.183   0.688  0.00  0.00     0.313 HD
ATOM     27  H   UNL d   1       2.518   9.283   2.052  0.00  0.00     0.313 HD
ENDBRANCH   5  25
BRANCH   1  28
ATOM     28  O   UNL d   1       1.238   4.710   3.840  0.00  0.00    -0.348 OA
BRANCH  28  29
ATOM     29  C   UNL d   1       0.878   5.382   5.048  0.00  0.00     0.292 C 
ATOM     30  O   UNL d   1       1.833   5.172   6.112  0.00  0.00    -0.348 OA
ATOM     31  C   UNL d   1       1.057   5.167   7.333  0.00  0.00     0.179 C 
ATOM     32  C   UNL d   1      -0.174   4.346   6.984  0.00  0.00     0.182 C 
ATOM     33  C   UNL d   1      -0.468   4.790   5.555  0.00  0.00     0.204 C 
BRANCH  31  34
ATOM     34  C   UNL d   1       1.830   4.558   8.510  0.00  0.00     0.198 C 
BRANCH  34  35
ATOM     35  O   UNL d   1       2.936   5.380   8.866  0.00  0.00    -0.398 OA
ATOM     36  H   UNL d   1       3.512   5.437   8.082  0.00  0.00     0.209 HD
ENDBRANCH  34  35
ENDBRANCH  31  34
BRANCH  32  37
ATOM     37  O   UNL d   1      -1.256   4.557   7.875  0.00  0.00    -0.390 OA
ATOM     38  H   UNL d   1      -1.861   5.187   7.426  0.00  0.00     0.210 HD
ENDBRANCH  32  37
BRANCH  33  39
ATOM     39  O   UNL d   1      -1.515   5.775   5.587  0.00  0.00    -0.388 OA
ATOM     40  H   UNL d   1      -1.779   5.932   4.661  0.00  0.00     0.210 HD
ENDBRANCH  33  39
ENDBRANCH  28  29
ENDBRANCH   1  28
BRANCH   2  41
ATOM     41  O   UNL d   1       4.032   3.988   4.046  0.00  0.00    -0.391 OA
ATOM     42  H   UNL d   1       3.226   3.555   4.387  0.00  0.00     0.210 HD
ENDBRANCH   2  41
BRANCH   3  43
ATOM     43  N   UNL d   1       6.056   5.817   3.276  0.00  0.00     0.085 N 
ATOM     44  H   UNL d   1       6.210   4.833   3.519  0.00  0.00     0.313 HD
ATOM     45  H   UNL d   1       6.098   6.308   4.170  0.00  0.00     0.313 HD
ENDBRANCH   3  43
TORSDOF 16
