temp2.pdb
 OpenBabel10091713583D

 98101  0  0  1  0  0  0  0  0999 V2000
   11.4040  -10.9340    5.5510 C   0  0  2  0  0  0  0  0  0  0  0  0
   11.3440   -9.4360    5.4600 O   0  0  0  0  0  0  0  0  0  0  0  0
   11.4610   -8.8910    4.0460 C   0  0  2  0  0  0  0  0  0  0  0  0
   11.3980   -7.3600    4.1050 C   0  0  0  0  0  0  0  0  0  0  0  0
   12.4360   -6.8400    4.9070 N   0  0  0  0  0  0  0  0  0  0  0  0
   10.2990   -9.5010    3.1330 C   0  0  0  0  0  0  0  0  0  0  0  0
   10.4460  -11.0980    3.1490 C   0  0  0  0  0  0  0  0  0  0  0  0
   12.7110  -11.3770    5.1840 O   0  0  0  0  0  0  0  0  0  0  0  0
   13.8600  -11.3290    6.0200 C   0  0  2  0  0  0  0  0  0  0  0  0
   15.0930  -11.3550    5.0830 C   0  0  1  0  0  0  0  0  0  0  0  0
   15.0330  -10.1790    4.1870 N   0  0  0  0  0  0  0  0  0  0  0  0
   16.4110  -11.3250    5.9490 C   0  0  0  0  0  0  0  0  0  0  0  0
   16.4550  -12.6110    6.9340 C   0  0  1  0  0  0  0  0  0  0  0  0
   17.7030  -12.5680    7.7170 N   0  0  0  0  0  0  0  0  0  0  0  0
   18.9040  -13.1550    7.1190 C   0  0  0  0  0  0  0  0  0  0  0  0
   18.9830  -13.6860    5.9990 O   0  0  0  0  0  0  0  0  0  0  0  0
   20.1340  -12.9880    8.1400 C   0  0  1  0  0  0  0  0  0  0  0  0
   19.7820  -12.0440    9.1750 O   0  0  0  0  0  0  0  0  0  0  0  0
   20.3670  -14.2360    8.6170 C   0  0  2  0  0  0  0  0  0  0  0  0
   19.3100  -14.7220    9.4750 F   0  0  0  0  0  0  0  0  0  0  0  0
   21.5610  -14.2310    9.3130 C   0  0  0  0  0  0  0  0  0  0  0  0
   22.4010  -15.2870    9.7380 N   0  0  0  0  0  0  0  0  0  0  0  0
   15.2040  -12.4660    7.9060 C   0  0  2  0  0  0  0  0  0  0  0  0
   15.1840  -13.5380    8.7700 O   0  0  0  0  0  0  0  0  0  0  0  0
   13.8640  -12.5330    7.0100 C   0  0  1  0  0  0  0  0  0  0  0  0
   12.6320  -12.4000    7.8570 O   0  0  0  0  0  0  0  0  0  0  0  0
   11.9450  -13.3410    8.4600 C   0  0  2  0  0  0  0  0  0  0  0  0
   10.8790  -13.9620    7.6580 O   0  0  0  0  0  0  0  0  0  0  0  0
    9.5930  -13.9280    8.2990 C   0  0  2  0  0  0  0  0  0  0  0  0
    8.5680  -12.8230    7.8630 C   0  0  0  0  0  0  0  0  0  0  0  0
    7.8280  -13.3420    6.7400 O   0  0  0  0  0  0  0  0  0  0  0  0
   10.1140  -13.8660    9.7700 C   0  0  1  0  0  0  0  0  0  0  0  0
   10.6840  -15.2010   10.2140 O   0  0  0  0  0  0  0  0  0  0  0  0
    9.7950  -16.1060   10.7520 C   0  0  1  0  0  0  0  0  0  0  0  0
    8.8910  -16.7820    9.6920 O   0  0  0  0  0  0  0  0  0  0  0  0
    7.8840  -17.7700   10.2320 C   0  0  1  0  0  0  0  0  0  0  0  0
    7.0290  -18.3910    9.0580 C   0  0  0  0  0  0  0  0  0  0  0  0
    6.2370  -17.3240    8.2490 N   0  0  0  0  0  0  0  0  0  0  0  0
    8.5520  -18.8050   10.9920 C   0  0  0  0  0  0  0  0  0  0  0  0
    9.3180  -18.1870   12.0360 C   0  0  0  0  0  0  0  0  0  0  0  0
   10.4400  -17.2090   11.5370 C   0  0  1  0  0  0  0  0  0  0  0  0
   11.3190  -18.0020   10.7940 N   0  0  0  0  0  0  0  0  0  0  0  0
   11.2210  -12.8400    9.7420 C   0  0  1  0  0  0  0  0  0  0  0  0
   12.1120  -12.9320   10.8120 O   0  0  0  0  0  0  0  0  0  0  0  0
   10.3250  -11.5950    4.6610 C   0  0  1  0  0  0  0  0  0  0  0  0
   10.4690  -13.0930    4.7820 N   0  0  0  0  0  0  0  0  0  0  0  0
   11.2030  -11.2277    6.5601 H   0  0  0  0  0  0  0  0  0  0  0  0
   12.3941   -9.1762    3.6068 H   0  0  0  0  0  0  0  0  0  0  0  0
   10.4560   -7.0645    4.5176 H   0  0  0  0  0  0  0  0  0  0  0  0
   11.5104   -6.9765    3.1124 H   0  0  0  0  0  0  0  0  0  0  0  0
   12.3424   -7.1971    5.8579 H   0  0  0  0  0  0  0  0  0  0  0  0
   12.3787   -5.8217    4.9191 H   0  0  0  0  0  0  0  0  0  0  0  0
   10.3949   -9.1372    2.1313 H   0  0  0  0  0  0  0  0  0  0  0  0
    9.3397   -9.2114    3.5081 H   0  0  0  0  0  0  0  0  0  0  0  0
   11.3989  -11.3780    2.7509 H   0  0  0  0  0  0  0  0  0  0  0  0
    9.6803  -11.5456    2.5505 H   0  0  0  0  0  0  0  0  0  0  0  0
   13.8702  -10.4433    6.6203 H   0  0  0  0  0  0  0  0  0  0  0  0
   15.0941  -12.2479    4.4934 H   0  0  0  0  0  0  0  0  0  0  0  0
   15.0318   -9.3256    4.7457 H   0  0  0  0  0  0  0  0  0  0  0  0
   14.1809  -10.2206    3.6280 H   0  0  0  0  0  0  0  0  0  0  0  0
   16.4304  -10.4294    6.5342 H   0  0  0  0  0  0  0  0  0  0  0  0
   17.2600  -11.3512    5.2983 H   0  0  0  0  0  0  0  0  0  0  0  0
   16.4215  -13.5342    6.3942 H   0  0  0  0  0  0  0  0  0  0  0  0
   17.7283  -12.1584    8.6119 H   0  0  0  0  0  0  0  0  0  0  0  0
   21.0185  -12.5965    7.6825 H   0  0  0  0  0  0  0  0  0  0  0  0
   18.9805  -12.3468    9.6298 H   0  0  0  0  0  0  0  0  0  0  0  0
   20.4110  -14.8978    7.7774 H   0  0  0  0  0  0  0  0  0  0  0  0
   21.3246  -13.7138   10.2194 H   0  0  0  0  0  0  0  0  0  0  0  0
   22.1773  -13.8963    8.5049 H   0  0  0  0  0  0  0  0  0  0  0  0
   21.9770  -15.7582   10.5371 H   0  0  0  0  0  0  0  0  0  0  0  0
   23.3099  -14.9109   10.0080 H   0  0  0  0  0  0  0  0  0  0  0  0
   15.2633  -11.5464    8.4499 H   0  0  0  0  0  0  0  0  0  0  0  0
   15.1302  -14.3622    8.2614 H   0  0  0  0  0  0  0  0  0  0  0  0
   13.8565  -13.4757    6.5039 H   0  0  0  0  0  0  0  0  0  0  0  0
   12.7148  -14.0543    8.6684 H   0  0  0  0  0  0  0  0  0  0  0  0
    8.9434  -14.7418    8.0527 H   0  0  0  0  0  0  0  0  0  0  0  0
    9.0888  -11.9328    7.5781 H   0  0  0  0  0  0  0  0  0  0  0  0
    7.9091  -12.5787    8.6699 H   0  0  0  0  0  0  0  0  0  0  0  0
    8.4415  -13.5571    6.0201 H   0  0  0  0  0  0  0  0  0  0  0  0
    9.3247  -13.6221   10.4501 H   0  0  0  0  0  0  0  0  0  0  0  0
    9.2112  -15.4938   11.4072 H   0  0  0  0  0  0  0  0  0  0  0  0
    7.2154  -17.2526   10.8879 H   0  0  0  0  0  0  0  0  0  0  0  0
    6.3326  -19.0877    9.4756 H   0  0  0  0  0  0  0  0  0  0  0  0
    7.7110  -18.8626    8.3817 H   0  0  0  0  0  0  0  0  0  0  0  0
    5.5747  -16.8527    8.8652 H   0  0  0  0  0  0  0  0  0  0  0  0
    5.7303  -17.7798    7.4901 H   0  0  0  0  0  0  0  0  0  0  0  0
    9.2021  -19.3610   10.3492 H   0  0  0  0  0  0  0  0  0  0  0  0
    7.8291  -19.4707   11.4153 H   0  0  0  0  0  0  0  0  0  0  0  0
    9.7822  -18.9607   12.6112 H   0  0  0  0  0  0  0  0  0  0  0  0
    8.6314  -17.5941   12.6034 H   0  0  0  0  0  0  0  0  0  0  0  0
   10.9876  -16.7263   12.3194 H   0  0  0  0  0  0  0  0  0  0  0  0
   10.8066  -18.4672   10.0447 H   0  0  0  0  0  0  0  0  0  0  0  0
   11.7419  -18.7028   11.4027 H   0  0  0  0  0  0  0  0  0  0  0  0
   10.8702  -11.8298    9.7789 H   0  0  0  0  0  0  0  0  0  0  0  0
   12.4800  -13.8287   10.8501 H   0  0  0  0  0  0  0  0  0  0  0  0
    9.3474  -11.3096    4.9894 H   0  0  0  0  0  0  0  0  0  0  0  0
   11.3994  -13.3714    4.4702 H   0  0  0  0  0  0  0  0  0  0  0  0
    9.7652  -13.5502    4.2023 H   0  0  0  0  0  0  0  0  0  0  0  0
  1 45  1  0  0  0  0
  1  8  1  0  0  0  0
  1  2  1  0  0  0  0
  1 47  1  1  0  0  0
  2  3  1  0  0  0  0
  3  6  1  0  0  0  0
  3  4  1  0  0  0  0
  3 48  1  6  0  0  0
  4  5  1  0  0  0  0
  4 49  1  0  0  0  0
  4 50  1  0  0  0  0
  5 51  1  0  0  0  0
  5 52  1  0  0  0  0
  6  7  1  0  0  0  0
  6 53  1  0  0  0  0
  6 54  1  0  0  0  0
  7 45  1  0  0  0  0
  7 55  1  0  0  0  0
  7 56  1  0  0  0  0
  9  8  1  0  0  0  0
  9 25  1  0  0  0  0
  9 10  1  0  0  0  0
  9 57  1  1  0  0  0
 10 12  1  0  0  0  0
 10 11  1  0  0  0  0
 10 58  1  6  0  0  0
 11 59  1  0  0  0  0
 11 60  1  0  0  0  0
 12 13  1  0  0  0  0
 12 61  1  0  0  0  0
 12 62  1  0  0  0  0
 13 23  1  0  0  0  0
 13 14  1  0  0  0  0
 13 63  1  6  0  0  0
 14 15  1  0  0  0  0
 14 64  1  0  0  0  0
 15 17  1  0  0  0  0
 15 16  2  0  0  0  0
 17 19  1  0  0  0  0
 17 18  1  0  0  0  0
 17 65  1  6  0  0  0
 18 66  1  0  0  0  0
 19 21  1  0  0  0  0
 19 20  1  0  0  0  0
 19 67  1  6  0  0  0
 21 22  1  0  0  0  0
 21 68  1  0  0  0  0
 21 69  1  0  0  0  0
 22 70  1  0  0  0  0
 22 71  1  0  0  0  0
 23 25  1  0  0  0  0
 23 24  1  0  0  0  0
 23 72  1  1  0  0  0
 24 73  1  0  0  0  0
 25 26  1  0  0  0  0
 25 74  1  6  0  0  0
 27 26  1  0  0  0  0
 27 43  1  0  0  0  0
 27 28  1  0  0  0  0
 27 75  1  1  0  0  0
 28 29  1  0  0  0  0
 29 32  1  0  0  0  0
 29 30  1  0  0  0  0
 29 76  1  6  0  0  0
 30 31  1  0  0  0  0
 30 77  1  0  0  0  0
 30 78  1  0  0  0  0
 31 79  1  0  0  0  0
 32 43  1  0  0  0  0
 32 33  1  0  0  0  0
 32 80  1  1  0  0  0
 34 33  1  0  0  0  0
 34 41  1  0  0  0  0
 34 35  1  0  0  0  0
 34 81  1  1  0  0  0
 35 36  1  0  0  0  0
 36 39  1  0  0  0  0
 36 37  1  0  0  0  0
 36 82  1  1  0  0  0
 37 38  1  0  0  0  0
 37 83  1  0  0  0  0
 37 84  1  0  0  0  0
 38 85  1  0  0  0  0
 38 86  1  0  0  0  0
 39 40  1  0  0  0  0
 39 87  1  0  0  0  0
 39 88  1  0  0  0  0
 40 41  1  0  0  0  0
 40 89  1  0  0  0  0
 40 90  1  0  0  0  0
 41 42  1  0  0  0  0
 41 91  1  1  0  0  0
 42 92  1  0  0  0  0
 42 93  1  0  0  0  0
 43 44  1  0  0  0  0
 43 94  1  6  0  0  0
 44 95  1  0  0  0  0
 45 46  1  0  0  0  0
 45 96  1  1  0  0  0
 46 97  1  0  0  0  0
 46 98  1  0  0  0  0
M  END
$$$$
