3WRU_SJP_A_101
 OpenBabel10281720503D
Coordinates from PDB:3WRU:A:101 Model:1 without hydrogens
 98101  0  0  0  0  0  0  0  0999 V2000
   11.4040  -10.9340    5.5510 C   0  0  1  0  0  0  0  0  0  0  0  0
   13.8600  -11.3290    6.0200 C   0  0  1  0  0  0  0  0  0  0  0  0
   13.8640  -12.5330    7.0100 C   0  0  1  0  0  0  0  0  0  0  0  0
   15.2040  -12.4660    7.9060 C   0  0  2  0  0  0  0  0  0  0  0  0
   11.9450  -13.3410    8.4600 C   0  0  2  0  0  0  0  0  0  0  0  0
   11.2210  -12.8400    9.7420 C   0  0  1  0  0  0  0  0  0  0  0  0
   10.1140  -13.8660    9.7700 C   0  0  1  0  0  0  0  0  0  0  0  0
    9.5930  -13.9280    8.2990 C   0  0  1  0  0  0  0  0  0  0  0  0
    8.5680  -12.8230    7.8630 C   0  0  0  0  0  0  0  0  0  0  0  0
    9.7950  -16.1060   10.7520 C   0  0  1  0  0  0  0  0  0  0  0  0
   10.4400  -17.2090   11.5370 C   0  0  1  0  0  0  0  0  0  0  0  0
   10.3250  -11.5950    4.6610 C   0  0  1  0  0  0  0  0  0  0  0  0
    9.3180  -18.1870   12.0360 C   0  0  0  0  0  0  0  0  0  0  0  0
    8.5520  -18.8050   10.9920 C   0  0  0  0  0  0  0  0  0  0  0  0
    7.8840  -17.7700   10.2320 C   0  0  2  0  0  0  0  0  0  0  0  0
    7.0290  -18.3910    9.0580 C   0  0  0  0  0  0  0  0  0  0  0  0
   20.3670  -14.2360    8.6170 C   0  0  2  0  0  0  0  0  0  0  0  0
   18.9040  -13.1550    7.1190 C   0  0  0  0  0  0  0  0  0  0  0  0
   21.5610  -14.2310    9.3130 C   0  0  0  0  0  0  0  0  0  0  0  0
   20.1340  -12.9880    8.1400 C   0  0  1  0  0  0  0  0  0  0  0  0
   10.4460  -11.0980    3.1490 C   0  0  0  0  0  0  0  0  0  0  0  0
   10.2990   -9.5010    3.1330 C   0  0  0  0  0  0  0  0  0  0  0  0
   11.4610   -8.8910    4.0460 C   0  0  1  0  0  0  0  0  0  0  0  0
   11.3980   -7.3600    4.1050 C   0  0  0  0  0  0  0  0  0  0  0  0
   16.4550  -12.6110    6.9340 C   0  0  1  0  0  0  0  0  0  0  0  0
   16.4110  -11.3250    5.9490 C   0  0  0  0  0  0  0  0  0  0  0  0
   15.0930  -11.3550    5.0830 C   0  0  2  0  0  0  0  0  0  0  0  0
   19.3100  -14.7220    9.4750 F   0  0  0  0  0  0  0  0  0  0  0  0
    6.2370  -17.3240    8.2490 N   0  0  0  0  0  0  0  0  0  0  0  0
   10.4690  -13.0930    4.7820 N   0  0  0  0  0  0  0  0  0  0  0  0
   11.3190  -18.0020   10.7940 N   0  0  0  0  0  0  0  0  0  0  0  0
   22.4010  -15.2870    9.7380 N   0  0  0  0  0  0  0  0  0  0  0  0
   12.4360   -6.8400    4.9070 N   0  0  0  0  0  0  0  0  0  0  0  0
   17.7030  -12.5680    7.7170 N   0  0  0  0  0  0  0  0  0  0  0  0
   15.0330  -10.1790    4.1870 N   0  0  0  0  0  0  0  0  0  0  0  0
   12.7110  -11.3770    5.1840 O   0  0  0  0  0  0  0  0  0  0  0  0
   12.6320  -12.4000    7.8570 O   0  0  0  0  0  0  0  0  0  0  0  0
   15.1840  -13.5380    8.7700 O   0  0  0  0  0  0  0  0  0  0  0  0
   12.1120  -12.9320   10.8120 O   0  0  0  0  0  0  0  0  0  0  0  0
   10.8790  -13.9620    7.6580 O   0  0  0  0  0  0  0  0  0  0  0  0
    7.8280  -13.3420    6.7400 O   0  0  0  0  0  0  0  0  0  0  0  0
   10.6840  -15.2010   10.2140 O   0  0  0  0  0  0  0  0  0  0  0  0
   19.7820  -12.0440    9.1750 O   0  0  0  0  0  0  0  0  0  0  0  0
   18.9830  -13.6860    5.9990 O   0  0  0  0  0  0  0  0  0  0  0  0
    8.8910  -16.7820    9.6920 O   0  0  0  0  0  0  0  0  0  0  0  0
   11.3440   -9.4360    5.4600 O   0  0  0  0  0  0  0  0  0  0  0  0
   11.2030  -11.2277    6.5601 H   0  0  0  0  0  0  0  0  0  0  0  0
   13.8702  -10.4433    6.6203 H   0  0  0  0  0  0  0  0  0  0  0  0
   13.8565  -13.4757    6.5039 H   0  0  0  0  0  0  0  0  0  0  0  0
   15.2633  -11.5464    8.4499 H   0  0  0  0  0  0  0  0  0  0  0  0
   12.7148  -14.0543    8.6684 H   0  0  0  0  0  0  0  0  0  0  0  0
   10.8702  -11.8298    9.7789 H   0  0  0  0  0  0  0  0  0  0  0  0
    9.3247  -13.6221   10.4501 H   0  0  0  0  0  0  0  0  0  0  0  0
    8.9434  -14.7418    8.0527 H   0  0  0  0  0  0  0  0  0  0  0  0
    9.0888  -11.9328    7.5781 H   0  0  0  0  0  0  0  0  0  0  0  0
    7.9091  -12.5787    8.6699 H   0  0  0  0  0  0  0  0  0  0  0  0
    9.2112  -15.4938   11.4072 H   0  0  0  0  0  0  0  0  0  0  0  0
   10.9876  -16.7263   12.3194 H   0  0  0  0  0  0  0  0  0  0  0  0
    9.3474  -11.3096    4.9894 H   0  0  0  0  0  0  0  0  0  0  0  0
    8.6466  -17.6336   12.6588 H   0  0  0  0  0  0  0  0  0  0  0  0
    9.8169  -18.9795   12.5537 H   0  0  0  0  0  0  0  0  0  0  0  0
    7.8252  -19.4633   11.4201 H   0  0  0  0  0  0  0  0  0  0  0  0
    9.1972  -19.3690   10.3513 H   0  0  0  0  0  0  0  0  0  0  0  0
    7.2154  -17.2526   10.8879 H   0  0  0  0  0  0  0  0  0  0  0  0
    6.3326  -19.0877    9.4756 H   0  0  0  0  0  0  0  0  0  0  0  0
    7.7110  -18.8626    8.3817 H   0  0  0  0  0  0  0  0  0  0  0  0
   20.4110  -14.8978    7.7774 H   0  0  0  0  0  0  0  0  0  0  0  0
   21.3246  -13.7138   10.2194 H   0  0  0  0  0  0  0  0  0  0  0  0
   22.1773  -13.8963    8.5049 H   0  0  0  0  0  0  0  0  0  0  0  0
   21.0185  -12.5965    7.6825 H   0  0  0  0  0  0  0  0  0  0  0  0
    9.6696  -11.5391    2.5595 H   0  0  0  0  0  0  0  0  0  0  0  0
   11.3918  -11.3862    2.7398 H   0  0  0  0  0  0  0  0  0  0  0  0
    9.3437   -9.2200    3.5246 H   0  0  0  0  0  0  0  0  0  0  0  0
   10.3775   -9.1296    2.1326 H   0  0  0  0  0  0  0  0  0  0  0  0
   12.3941   -9.1762    3.6068 H   0  0  0  0  0  0  0  0  0  0  0  0
   10.4560   -7.0645    4.5176 H   0  0  0  0  0  0  0  0  0  0  0  0
   11.5104   -6.9765    3.1124 H   0  0  0  0  0  0  0  0  0  0  0  0
   16.4215  -13.5342    6.3942 H   0  0  0  0  0  0  0  0  0  0  0  0
   17.2618  -11.3459    5.3005 H   0  0  0  0  0  0  0  0  0  0  0  0
   16.4252  -10.4311    6.5369 H   0  0  0  0  0  0  0  0  0  0  0  0
   15.0941  -12.2479    4.4934 H   0  0  0  0  0  0  0  0  0  0  0  0
    5.5747  -16.8527    8.8652 H   0  0  0  0  0  0  0  0  0  0  0  0
    5.7303  -17.7798    7.4901 H   0  0  0  0  0  0  0  0  0  0  0  0
   11.3994  -13.3714    4.4702 H   0  0  0  0  0  0  0  0  0  0  0  0
    9.7652  -13.5502    4.2023 H   0  0  0  0  0  0  0  0  0  0  0  0
   10.8066  -18.4672   10.0447 H   0  0  0  0  0  0  0  0  0  0  0  0
   11.7419  -18.7028   11.4027 H   0  0  0  0  0  0  0  0  0  0  0  0
   21.9770  -15.7582   10.5371 H   0  0  0  0  0  0  0  0  0  0  0  0
   23.3099  -14.9109   10.0080 H   0  0  0  0  0  0  0  0  0  0  0  0
   12.3424   -7.1971    5.8579 H   0  0  0  0  0  0  0  0  0  0  0  0
   12.3787   -5.8217    4.9191 H   0  0  0  0  0  0  0  0  0  0  0  0
   17.7283  -12.1584    8.6119 H   0  0  0  0  0  0  0  0  0  0  0  0
   15.0318   -9.3256    4.7457 H   0  0  0  0  0  0  0  0  0  0  0  0
   14.1809  -10.2206    3.6280 H   0  0  0  0  0  0  0  0  0  0  0  0
   15.1302  -14.3622    8.2614 H   0  0  0  0  0  0  0  0  0  0  0  0
   12.4800  -13.8287   10.8501 H   0  0  0  0  0  0  0  0  0  0  0  0
    8.4415  -13.5571    6.0201 H   0  0  0  0  0  0  0  0  0  0  0  0
   18.9805  -12.3468    9.6298 H   0  0  0  0  0  0  0  0  0  0  0  0
  1 36  1  0  0  0  0
  1 46  1  0  0  0  0
  1 12  1  0  0  0  0
  1 47  1  1  0  0  0
  2 36  1  0  0  0  0
  2 27  1  0  0  0  0
  2 48  1  1  0  0  0
  3 37  1  0  0  0  0
  3  2  1  0  0  0  0
  3 49  1  6  0  0  0
  4 38  1  0  0  0  0
  4  3  1  0  0  0  0
  4 25  1  0  0  0  0
  4 50  1  1  0  0  0
  5 40  1  0  0  0  0
  5 37  1  0  0  0  0
  5 51  1  1  0  0  0
  6 39  1  0  0  0  0
  6  5  1  0  0  0  0
  6 52  1  6  0  0  0
  7 42  1  0  0  0  0
  7  6  1  0  0  0  0
  7  8  1  0  0  0  0
  7 53  1  1  0  0  0
  8  9  1  0  0  0  0
  8 40  1  0  0  0  0
  8 54  1  6  0  0  0
  9 41  1  0  0  0  0
  9 55  1  0  0  0  0
  9 56  1  0  0  0  0
 10 42  1  0  0  0  0
 10 45  1  0  0  0  0
 10 57  1  1  0  0  0
 11 31  1  0  0  0  0
 11 10  1  0  0  0  0
 11 58  1  1  0  0  0
 12 30  1  0  0  0  0
 12 21  1  0  0  0  0
 12 59  1  1  0  0  0
 13 11  1  0  0  0  0
 13 14  1  0  0  0  0
 13 60  1  0  0  0  0
 13 61  1  0  0  0  0
 14 15  1  0  0  0  0
 14 62  1  0  0  0  0
 14 63  1  0  0  0  0
 15 45  1  0  0  0  0
 15 16  1  0  0  0  0
 15 64  1  1  0  0  0
 16 29  1  0  0  0  0
 16 65  1  0  0  0  0
 16 66  1  0  0  0  0
 17 28  1  0  0  0  0
 17 20  1  0  0  0  0
 17 67  1  6  0  0  0
 18 44  2  0  0  0  0
 19 17  1  0  0  0  0
 19 68  1  0  0  0  0
 19 69  1  0  0  0  0
 20 43  1  0  0  0  0
 20 18  1  0  0  0  0
 20 70  1  6  0  0  0
 21 22  1  0  0  0  0
 21 71  1  0  0  0  0
 21 72  1  0  0  0  0
 22 73  1  0  0  0  0
 22 74  1  0  0  0  0
 23 24  1  0  0  0  0
 23 22  1  0  0  0  0
 23 75  1  6  0  0  0
 24 76  1  0  0  0  0
 24 77  1  0  0  0  0
 25 34  1  0  0  0  0
 25 26  1  0  0  0  0
 25 78  1  6  0  0  0
 26 27  1  0  0  0  0
 26 79  1  0  0  0  0
 26 80  1  0  0  0  0
 27 35  1  0  0  0  0
 27 81  1  6  0  0  0
 29 82  1  0  0  0  0
 29 83  1  0  0  0  0
 30 84  1  0  0  0  0
 30 85  1  0  0  0  0
 31 86  1  0  0  0  0
 31 87  1  0  0  0  0
 32 19  1  0  0  0  0
 32 88  1  0  0  0  0
 32 89  1  0  0  0  0
 33 24  1  0  0  0  0
 33 90  1  0  0  0  0
 33 91  1  0  0  0  0
 34 18  1  0  0  0  0
 34 92  1  0  0  0  0
 35 93  1  0  0  0  0
 35 94  1  0  0  0  0
 38 95  1  0  0  0  0
 39 96  1  0  0  0  0
 41 97  1  0  0  0  0
 43 98  1  0  0  0  0
 46 23  1  0  0  0  0
A    1
C1
A    2
C10
A    3
C11
A    4
C12
A    5
C13
A    6
C14
A    7
C15
A    8
C16
A    9
C17
A   10
C18
A   11
C19
A   12
C2
A   13
C20
A   14
C21
A   15
C22
A   16
C23
A   17
C24
A   18
C26
A   19
C27
A   20
C28
A   21
C3
A   22
C4
A   23
C5
A   24
C6
A   25
C7
A   26
C8
A   27
C9
A   28
F99
A   29
N19
A   30
N2
A   31
N23
A   32
N3
A   33
N6
A   34
N7
A   35
N9
A   36
O1
A   37
O11
A   38
O12
A   39
O14
A   40
O16
A   41
O17
A   42
O18
A   43
O19
A   44
O2
A   45
O22
A   46
O5
M  END
>  <InstanceId>
3WRU_SJP_A_101

>  <ChemCompId>
SJP

>  <PdbId>
3WRU

>  <ChainId>
A

>  <ResidueNumber>
101

>  <InsertionCode>


>  <Model>
1

>  <AltIds>


>  <MissingHeavyAtoms>
0

>  <ObservedFormula>
C27 N7 O11 F

>  <Name>
(2R,3R)-4-amino-N-[(1R,2S,3R,4R,5S)-5-amino-4-[(2,6-diamino-2,3,4,6-tetradeoxy-alpha-D-erythro-hexopyranosyl)oxy]-3-{[3-O-(2,6-diamino-2,3,4,6-tetradeoxy-beta-L-threo-hexopyranosyl)-beta-D-ribofuranosyl]oxy}-2-hydroxycyclohexyl]-3-fluoro-2-hydroxybutanamide

>  <SystematicName>
(2R,3R)-N-[(1R,2S,3R,4R,5S)-4-[(2R,3R,6S)-6-(aminomethyl)-3-azanyl-oxan-2-yl]oxy-3-[(2S,3R,4S,5R)-4-[(2R,3R,6R)-6-(aminomethyl)-3-azanyl-oxan-2-yl]oxy-5-(hydroxymethyl)-3-oxidanyl-oxolan-2-yl]oxy-5-azanyl-2-oxidanyl-cyclohexyl]-4-azanyl-3-fluoranyl-2-oxidanyl-butanamide

>  <Synonyms>


>  <Type>
NON-POLYMER

>  <Formula>
C27 H52 F N7 O11

>  <MolecularWeight>
669.74

>  <ModifiedDate>
2014-10-31

>  <Parent>


>  <OneLetterCode>


>  <SubcomponentList>


>  <AmbiguousFlag>
N

>  <InChI>
InChI=1S/C27H52FN7O11/c28-12(8-31)18(37)24(40)35-16-5-15(34)21(44-25-13(32)3-1-10(6-29)41-25)23(19(16)38)46-27-20(39)22(17(9-36)43-27)45-26-14(33)4-2-11(7-30)42-26/h10-23,25-27,36-39H,1-9,29-34H2,(H,35,40)/t10-,11+,12+,13+,14+,15-,16+,17+,18-,19-,20+,21+,22+,23+,25+,26+,27-/m0/s1

>  <InChIKey>
XWTWBGQMVSXRIE-ZLDKHCKJSA-N

>  <SMILES>
C1C[C@H]([C@H](O[C@@H]1CN)O[C@@H]2[C@H](C[C@H]([C@@H]([C@H]2O[C@H]3[C@@H]([C@@H]([C@H](O3)CO)O[C@@H]4[C@@H](CC[C@@H](O4)CN)N)O)O)NC(=O)[C@H]([C@@H](CN)F)O)N)N

$$$$
