REMARK  13 active torsions:
REMARK  status: ('A' for Active; 'I' for Inactive)
REMARK    1  A    between atoms: C_1  and  O_36 
REMARK    2  A    between atoms: C_2  and  O_36 
REMARK    3  A    between atoms: C_3  and  O_37 
REMARK    4  A    between atoms: C_5  and  O_37 
REMARK    5  A    between atoms: C_7  and  O_42 
REMARK    6  A    between atoms: C_8  and  C_9 
REMARK    7  A    between atoms: C_10  and  O_42 
REMARK    8  A    between atoms: C_15  and  C_16 
REMARK    9  A    between atoms: C_17  and  C_20 
REMARK   10  A    between atoms: C_19  and  C_17 
REMARK   11  A    between atoms: C_20  and  C_18 
REMARK       I    between atoms: N_34  and  C_18 
REMARK   12  A    between atoms: C_23  and  C_24 
REMARK   13  A    between atoms: C_25  and  N_34 
ROOT
ATOM      1  C   UNL d   1      13.860 -11.329   6.020  0.00  0.00     0.184 C 
ATOM      2  C   UNL d   1      13.864 -12.533   7.010  0.00  0.00     0.179 C 
ATOM      3  C   UNL d   1      15.204 -12.466   7.906  0.00  0.00     0.204 C 
ATOM      4  C   UNL d   1      16.455 -12.611   6.934  0.00  0.00     0.141 C 
ATOM      5  C   UNL d   1      16.411 -11.325   5.949  0.00  0.00     0.069 C 
ATOM      6  C   UNL d   1      15.093 -11.355   5.083  0.00  0.00     0.333 C 
ATOM      7  N   UNL d   1      15.033 -10.179   4.187  0.00  0.00     0.619 N 
ATOM      8  O   UNL d   1      15.184 -13.538   8.770  0.00  0.00    -0.219 OA
ENDROOT
BRANCH   2   9
ATOM      9  O   UNL d   1      12.632 -12.400   7.857  0.00  0.00    -0.326 OA
BRANCH   9  10
ATOM     10  C   UNL d   1      11.945 -13.341   8.460  0.00  0.00     0.270 C 
ATOM     11  O   UNL d   1      10.879 -13.962   7.658  0.00  0.00    -0.326 OA
ATOM     12  C   UNL d   1       9.593 -13.928   8.299  0.00  0.00     0.181 C 
ATOM     13  C   UNL d   1      10.114 -13.866   9.770  0.00  0.00     0.183 C 
ATOM     14  C   UNL d   1      11.221 -12.840   9.742  0.00  0.00     0.238 C 
ATOM     15  O   UNL d   1      12.112 -12.932  10.812  0.00  0.00    -0.215 OA
BRANCH  12  16
ATOM     16  C   UNL d   1       8.568 -12.823   7.863  0.00  0.00     0.214 C 
ATOM     17  O   UNL d   1       7.828 -13.342   6.740  0.00  0.00    -0.218 OA
ENDBRANCH  12  16
BRANCH  13  18
ATOM     18  O   UNL d   1      10.684 -15.201  10.214  0.00  0.00    -0.327 OA
BRANCH  18  19
ATOM     19  C   UNL d   1       9.795 -16.106  10.752  0.00  0.00     0.274 C 
ATOM     20  O   UNL d   1       8.891 -16.782   9.692  0.00  0.00    -0.330 OA
ATOM     21  C   UNL d   1       7.884 -17.770  10.232  0.00  0.00     0.157 C 
ATOM     22  C   UNL d   1       8.552 -18.805  10.992  0.00  0.00     0.034 C 
ATOM     23  C   UNL d   1       9.318 -18.187  12.036  0.00  0.00     0.047 C 
ATOM     24  C   UNL d   1      10.440 -17.209  11.537  0.00  0.00     0.357 C 
ATOM     25  N   UNL d   1      11.319 -18.002  10.794  0.00  0.00     0.621 N 
BRANCH  21  26
ATOM     26  C   UNL d   1       7.029 -18.391   9.058  0.00  0.00     0.368 C 
ATOM     27  N   UNL d   1       6.237 -17.324   8.249  0.00  0.00     0.621 N 
ENDBRANCH  21  26
ENDBRANCH  18  19
ENDBRANCH  13  18
ENDBRANCH   9  10
ENDBRANCH   2   9
BRANCH   1  28
ATOM     28  O   UNL d   1      12.711 -11.377   5.184  0.00  0.00    -0.327 OA
BRANCH  28  29
ATOM     29  C   UNL d   1      11.404 -10.934   5.551  0.00  0.00     0.274 C 
ATOM     30  O   UNL d   1      11.344  -9.436   5.460  0.00  0.00    -0.330 OA
ATOM     31  C   UNL d   1      11.461  -8.891   4.046  0.00  0.00     0.157 C 
ATOM     32  C   UNL d   1      10.299  -9.501   3.133  0.00  0.00     0.034 C 
ATOM     33  C   UNL d   1      10.446 -11.098   3.149  0.00  0.00     0.047 C 
ATOM     34  C   UNL d   1      10.325 -11.595   4.661  0.00  0.00     0.357 C 
ATOM     35  N   UNL d   1      10.469 -13.093   4.782  0.00  0.00     0.621 N 
BRANCH  31  36
ATOM     36  C   UNL d   1      11.398  -7.360   4.105  0.00  0.00     0.368 C 
ATOM     37  N   UNL d   1      12.436  -6.840   4.907  0.00  0.00     0.621 N 
ENDBRANCH  31  36
ENDBRANCH  28  29
ENDBRANCH   1  28
BRANCH   4  38
ATOM     38  N   UNL d   1      17.703 -12.568   7.717  0.00  0.00    -0.235 NA
ATOM     39  C   UNL d   1      18.904 -13.155   7.119  0.00  0.00     0.285 C 
ATOM     40  O   UNL d   1      18.983 -13.686   5.999  0.00  0.00    -0.268 OA
BRANCH  39  41
ATOM     41  C   UNL d   1      20.134 -12.988   8.140  0.00  0.00     0.266 C 
ATOM     42  O   UNL d   1      19.782 -12.044   9.175  0.00  0.00    -0.210 OA
BRANCH  41  43
ATOM     43  C   UNL d   1      20.367 -14.236   8.617  0.00  0.00     0.239 C 
ATOM     44  F   UNL d   1      19.310 -14.722   9.475  0.00  0.00    -0.232 F 
BRANCH  43  45
ATOM     45  C   UNL d   1      21.561 -14.231   9.313  0.00  0.00     0.376 C 
ATOM     46  N   UNL d   1      22.401 -15.287   9.738  0.00  0.00     0.621 N 
ENDBRANCH  43  45
ENDBRANCH  41  43
ENDBRANCH  39  41
ENDBRANCH   4  38
TORSDOF 13
