@<TRIPOS>MOLECULE
3WRU_SJP_A_101
 46 49 0 0 0
SMALL
GASTEIGER
****
Coordinates from PDB:3WRU:A:101 Model:1 without hydrogens
@<TRIPOS>ATOM
      1 C          11.4040  -10.9340    5.5510 C.3     1  UNL1        0.2533
      2 C          13.8600  -11.3290    6.0200 C.3     1  UNL1        0.1649
      3 C          13.8640  -12.5330    7.0100 C.3     1  UNL1        0.1782
      4 C          15.2040  -12.4660    7.9060 C.3     1  UNL1        0.2012
      5 C          11.9450  -13.3410    8.4600 C.3     1  UNL1        0.2694
      6 C          11.2210  -12.8400    9.7420 C.3     1  UNL1        0.2373
      7 C          10.1140  -13.8660    9.7700 C.3     1  UNL1        0.1827
      8 C           9.5930  -13.9280    8.2990 C.3     1  UNL1        0.1804
      9 C           8.5680  -12.8230    7.8630 C.3     1  UNL1        0.2141
     10 C           9.7950  -16.1060   10.7520 C.3     1  UNL1        0.2533
     11 C          10.4400  -17.2090   11.5370 C.3     1  UNL1        0.1480
     12 C          10.3250  -11.5950    4.6610 C.3     1  UNL1        0.1480
     13 C           9.3180  -18.1870   12.0360 C.3     1  UNL1        0.0267
     14 C           8.5520  -18.8050   10.9920 C.3     1  UNL1        0.0329
     15 C           7.8840  -17.7700   10.2320 C.3     1  UNL1        0.1368
     16 C           7.0290  -18.3910    9.0580 C.3     1  UNL1        0.1388
     17 C          20.3670  -14.2360    8.6170 C.3     1  UNL1        0.2190
     18 C          18.9040  -13.1550    7.1190 C.2     1  UNL1        0.2747
     19 C          21.5610  -14.2310    9.3130 C.3     1  UNL1        0.1476
     20 C          20.1340  -12.9880    8.1400 C.3     1  UNL1        0.2626
     21 C          10.4460  -11.0980    3.1490 C.3     1  UNL1        0.0267
     22 C          10.2990   -9.5010    3.1330 C.3     1  UNL1        0.0329
     23 C          11.4610   -8.8910    4.0460 C.3     1  UNL1        0.1368
     24 C          11.3980   -7.3600    4.1050 C.3     1  UNL1        0.1388
     25 C          16.4550  -12.6110    6.9340 C.3     1  UNL1        0.1297
     26 C          16.4110  -11.3250    5.9490 C.3     1  UNL1        0.0459
     27 C          15.0930  -11.3550    5.0830 C.3     1  UNL1        0.1232
     28 F          19.3100  -14.7220    9.4750 F       1  UNL1       -0.2324
     29 N           6.2370  -17.3240    8.2490 N.3     1  UNL1       -0.1287
     30 N          10.4690  -13.0930    4.7820 N.3     1  UNL1       -0.1276
     31 N          11.3190  -18.0020   10.7940 N.3     1  UNL1       -0.1276
     32 N          22.4010  -15.2870    9.7380 N.3     1  UNL1       -0.1283
     33 N          12.4360   -6.8400    4.9070 N.3     1  UNL1       -0.1287
     34 N          17.7030  -12.5680    7.7170 N.am    1  UNL1       -0.2022
     35 N          15.0330  -10.1790    4.1870 N.3     1  UNL1       -0.1302
     36 O          12.7110  -11.3770    5.1840 O.3     1  UNL1       -0.3278
     37 O          12.6320  -12.4000    7.8570 O.3     1  UNL1       -0.3258
     38 O          15.1840  -13.5380    8.7700 O.3     1  UNL1       -0.2186
     39 O          12.1120  -12.9320   10.8120 O.3     1  UNL1       -0.2150
     40 O          10.8790  -13.9620    7.6580 O.3     1  UNL1       -0.3257
     41 O           7.8280  -13.3420    6.7400 O.3     1  UNL1       -0.2176
     42 O          10.6840  -15.2010   10.2140 O.3     1  UNL1       -0.3265
     43 O          19.7820  -12.0440    9.1750 O.3     1  UNL1       -0.2101
     44 O          18.9830  -13.6860    5.9990 O.2     1  UNL1       -0.2705
     45 O           8.8910  -16.7820    9.6920 O.3     1  UNL1       -0.3304
     46 O          11.3440   -9.4360    5.4600 O.3     1  UNL1       -0.3304
@<TRIPOS>BOND
     1     1    36    1
     2     1    46    1
     3     1    12    1
     4     2    36    1
     5     2    27    1
     6     3    37    1
     7     3     2    1
     8     4    38    1
     9     4     3    1
    10     4    25    1
    11     5    40    1
    12     5    37    1
    13     6    39    1
    14     6     5    1
    15     7    42    1
    16     7     6    1
    17     7     8    1
    18     8     9    1
    19     8    40    1
    20     9    41    1
    21    10    42    1
    22    10    45    1
    23    11    31    1
    24    11    10    1
    25    12    30    1
    26    12    21    1
    27    13    11    1
    28    13    14    1
    29    14    15    1
    30    15    45    1
    31    15    16    1
    32    16    29    1
    33    17    28    1
    34    17    20    1
    35    18    44    2
    36    19    17    1
    37    20    43    1
    38    20    18    1
    39    21    22    1
    40    23    24    1
    41    23    22    1
    42    25    34    1
    43    25    26    1
    44    26    27    1
    45    27    35    1
    46    32    19    1
    47    33    24    1
    48    34    18   am
    49    46    23    1
