@<TRIPOS>MOLECULE
3S4P_JS6_A_50
 111 115 0 0 0
SMALL
GASTEIGER

@<TRIPOS>ATOM
      1 C           4.6180    0.4031   -1.5719 C.3     1  UNL1        0.1776
      2 H           5.0080    0.5921   -2.5834 H       1  UNL1        0.0927
      3 O           4.1385   -0.9439   -1.6105 O.3     1  UNL1       -0.3422
      4 C           2.7387   -1.2671   -1.5379 C.3     1  UNL1        0.1055
      5 H           2.3506   -0.6979   -0.6973 H       1  UNL1        0.0639
      6 C           2.7863   -2.7667   -1.1295 C.3     1  UNL1        0.0355
      7 H           3.7153   -3.2057   -1.5145 H       1  UNL1        0.0485
      8 C           1.6383   -3.6278   -1.6273 C.3     1  UNL1       -0.0175
      9 C           1.5611   -3.5258   -3.1419 C.3     1  UNL1        0.0351
     10 H           2.5178   -3.8591   -3.5657 H       1  UNL1        0.0485
     11 N           0.5101   -4.4298   -3.6440 N.3     1  UNL1       -0.3250
     12 C           1.2892   -2.0882   -3.6164 C.3     1  UNL1        0.0990
     13 H           0.2117   -1.9104   -3.5732 H       1  UNL1        0.0636
     14 C           2.0029   -0.9253   -2.8670 C.3     1  UNL1        0.1166
     15 H           2.7479   -0.5029   -3.5541 H       1  UNL1        0.0650
     16 O           1.0320    0.1641   -2.7629 O.3     1  UNL1       -0.3402
     17 C           0.1657    0.1054   -1.6272 C.3     1  UNL1        0.1887
     18 H           0.6907    0.5996   -0.7976 H       1  UNL1        0.0938
     19 C          -1.2304    0.7538   -1.7945 C.3     1  UNL1        0.1380
     20 H          -1.6928    0.3148   -2.6850 H       1  UNL1        0.0674
     21 O          -1.3521    2.1508   -2.0551 O.3     1  UNL1       -0.3676
     22 C          -0.8025    3.0654   -1.1240 C.3     1  UNL1        0.0608
     23 C          -1.8035    4.1472   -0.6564 C.3     1  UNL1        0.0194
     24 N          -3.2157    3.7605   -0.7060 N.3     1  UNL1       -0.3135
     25 C          -3.7887    3.4163    0.5900 C.3     1  UNL1       -0.0000
     26 C          -5.2747    3.0170    0.4809 C.3     1  UNL1       -0.0151
     27 C          -5.4930    1.7140   -0.2558 C.ar    1  UNL1       -0.0462
     28 C          -5.5220    1.6968   -1.6594 C.ar    1  UNL1       -0.0585
     29 C          -5.8322    0.5289   -2.3536 C.ar    1  UNL1       -0.0615
     30 C          -6.1289   -0.6369   -1.6523 C.ar    1  UNL1       -0.0617
     31 C          -6.1217   -0.6328   -0.2583 C.ar    1  UNL1       -0.0615
     32 C          -5.8132    0.5395    0.4382 C.ar    1  UNL1       -0.0585
     33 C          -1.9108    0.1608   -0.5389 C.3     1  UNL1        0.1208
     34 H          -2.9919    0.3039   -0.5223 H       1  UNL1        0.0651
     35 O          -1.3388    0.8113    0.6258 O.3     1  UNL1       -0.3410
     36 C          -1.5385    0.1856    1.8905 C.3     1  UNL1        0.1776
     37 H          -2.5548   -0.2232    1.9290 H       1  UNL1        0.0927
     38 C          -1.3474    1.2493    3.0349 C.3     1  UNL1        0.0853
     39 H          -2.1591    1.9848    2.9678 H       1  UNL1        0.0535
     40 N          -0.0664    2.0265    2.9133 N.3     1  UNL1       -0.3211
     41 C          -1.4449    0.5224    4.4139 C.3     1  UNL1        0.1033
     42 H          -1.1429    1.2037    5.2187 H       1  UNL1        0.0637
     43 O          -2.8177    0.1724    4.6495 O.3     1  UNL1       -0.3874
     44 C          -0.5754   -0.7517    4.4622 C.3     1  UNL1        0.1100
     45 H          -0.7750   -1.3013    5.3883 H       1  UNL1        0.0646
     46 O           0.8092   -0.3777    4.4664 O.3     1  UNL1       -0.3866
     47 C          -0.9008   -1.6381    3.2518 C.3     1  UNL1        0.1022
     48 H          -1.9653   -1.8930    3.2168 H       1  UNL1        0.0636
     49 O          -0.5569   -0.8487    2.0875 O.3     1  UNL1       -0.3425
     50 C          -0.0548   -2.9230    3.2312 C.3     1  UNL1        0.0222
     51 N          -0.6265   -3.9240    2.3242 N.3     1  UNL1       -0.3276
     52 C          -1.4508   -1.2975   -0.6789 C.3     1  UNL1        0.1135
     53 H          -1.3832   -1.7969    0.2820 H       1  UNL1        0.0647
     54 O          -0.1122   -1.2502   -1.2207 O.3     1  UNL1       -0.3405
     55 C          -2.3843   -2.2054   -1.4994 C.3     1  UNL1        0.0730
     56 O          -2.3187   -1.9562   -2.8972 O.3     1  UNL1       -0.3924
     57 O           1.5628   -2.0392   -5.0356 O.3     1  UNL1       -0.3876
     58 N           2.8723   -2.9048    0.3394 N.3     1  UNL1       -0.3250
     59 C           5.8434    0.4277   -0.6114 C.3     1  UNL1        0.0853
     60 H           6.4536    1.3154   -0.8353 H       1  UNL1        0.0535
     61 N           6.7269   -0.7598   -0.7272 N.3     1  UNL1       -0.3211
     62 C           5.3178    0.5561    0.8266 C.3     1  UNL1        0.1033
     63 H           4.6469   -0.2752    1.0810 H       1  UNL1        0.0637
     64 O           6.3926    0.5149    1.7727 O.3     1  UNL1       -0.3874
     65 C           4.5773    1.8809    0.9304 C.3     1  UNL1        0.1109
     66 H           5.2341    2.7159    0.6530 H       1  UNL1        0.0646
     67 O           4.2048    2.0723    2.3063 O.3     1  UNL1       -0.3865
     68 C           3.3560    1.8110    0.0102 C.3     1  UNL1        0.1129
     69 H           2.6332    1.0936    0.4139 H       1  UNL1        0.0647
     70 O           3.6658    1.4388   -1.3418 O.3     1  UNL1       -0.3415
     71 C           2.6767    3.1876   -0.0283 C.3     1  UNL1        0.0730
     72 O           2.1179    3.4974    1.2526 O.3     1  UNL1       -0.3924
     73 H           1.8192   -4.6716   -1.3434 H       1  UNL1        0.0297
     74 H           0.6897   -3.3787   -1.1492 H       1  UNL1        0.0297
     75 H           0.3939   -4.2360   -4.6435 H       1  UNL1        0.1185
     76 H           0.8359   -5.3948   -3.5960 H       1  UNL1        0.1185
     77 H           0.0018    3.5819   -1.6566 H       1  UNL1        0.0573
     78 H          -0.3429    2.5882   -0.2583 H       1  UNL1        0.0573
     79 H          -1.5038    4.5012    0.3379 H       1  UNL1        0.0446
     80 H          -1.6871    5.0155   -1.3174 H       1  UNL1        0.0446
     81 H          -3.7558    4.4994   -1.1517 H       1  UNL1        0.1220
     82 H          -3.7126    4.2751    1.2674 H       1  UNL1        0.0427
     83 H          -3.2304    2.5880    1.0296 H       1  UNL1        0.0427
     84 H          -5.6756    2.9247    1.4978 H       1  UNL1        0.0325
     85 H          -5.8463    3.8169   -0.0044 H       1  UNL1        0.0325
     86 H          -5.2934    2.5990   -2.2234 H       1  UNL1        0.0620
     87 H          -5.8953    0.5424   -3.4403 H       1  UNL1        0.0618
     88 H          -6.4238   -1.5319   -2.1957 H       1  UNL1        0.0618
     89 H          -6.4275   -1.5254    0.2831 H       1  UNL1        0.0618
     90 H          -5.8623    0.5339    1.5251 H       1  UNL1        0.0620
     91 H          -0.2684    2.9966    3.1632 H       1  UNL1        0.1187
     92 H           0.5789    1.6952    3.6399 H       1  UNL1        0.1187
     93 H          -2.9875    0.2890    5.6042 H       1  UNL1        0.2100
     94 H           1.0940   -0.3656    3.5254 H       1  UNL1        0.2100
     95 H           0.9671   -2.7010    2.9012 H       1  UNL1        0.0448
     96 H           0.0095   -3.3589    4.2339 H       1  UNL1        0.0448
     97 H          -0.3497   -4.8578    2.6354 H       1  UNL1        0.1183
     98 H          -0.1873   -3.8129    1.4074 H       1  UNL1        0.1183
     99 H          -2.0979   -3.2511   -1.3421 H       1  UNL1        0.0584
    100 H          -3.4222   -2.0929   -1.1764 H       1  UNL1        0.0584
    101 H          -1.7410   -2.6410   -3.2825 H       1  UNL1        0.2095
    102 H           2.5246   -1.9502   -5.1496 H       1  UNL1        0.2100
    103 H           3.7694   -2.5335    0.6542 H       1  UNL1        0.1185
    104 H           2.1484   -2.3312    0.7728 H       1  UNL1        0.1185
    105 H           6.1039   -1.5695   -0.7958 H       1  UNL1        0.1187
    106 H           7.2271   -0.8519    0.1656 H       1  UNL1        0.1187
    107 H           6.0269    0.9180    2.5911 H       1  UNL1        0.2100
    108 H           3.5831    2.8329    2.3155 H       1  UNL1        0.2100
    109 H           1.9050    3.2146   -0.7956 H       1  UNL1        0.0584
    110 H           3.4032    3.9676   -0.2812 H       1  UNL1        0.0584
    111 H           1.3039    2.9604    1.3632 H       1  UNL1        0.2095
@<TRIPOS>BOND
     1     1     2    1
     2     3     1    1
     3     4     3    1
     4     4     5    1
     5     6     4    1
     6     6     7    1
     7     8     6    1
     8     9     8    1
     9     9    10    1
    10    11     9    1
    11    12     9    1
    12    12    13    1
    13    14    12    1
    14    14    15    1
    15    14     4    1
    16    16    14    1
    17    17    16    1
    18    17    18    1
    19    19    17    1
    20    19    20    1
    21    21    19    1
    22    22    21    1
    23    23    22    1
    24    24    23    1
    25    25    24    1
    26    26    25    1
    27    27    26    1
    28    28    27   ar
    29    29    28   ar
    30    30    29   ar
    31    31    30   ar
    32    32    31   ar
    33    32    27   ar
    34    33    19    1
    35    33    34    1
    36    35    33    1
    37    36    35    1
    38    36    37    1
    39    38    36    1
    40    38    39    1
    41    40    38    1
    42    41    38    1
    43    41    42    1
    44    43    41    1
    45    44    41    1
    46    44    45    1
    47    46    44    1
    48    47    44    1
    49    47    48    1
    50    49    47    1
    51    49    36    1
    52    50    47    1
    53    51    50    1
    54    52    33    1
    55    52    53    1
    56    54    52    1
    57    54    17    1
    58    55    52    1
    59    56    55    1
    60    57    12    1
    61    58     6    1
    62    59     1    1
    63    59    60    1
    64    61    59    1
    65    62    59    1
    66    62    63    1
    67    64    62    1
    68    65    62    1
    69    65    66    1
    70    67    65    1
    71    68    65    1
    72    68    69    1
    73    70    68    1
    74    70     1    1
    75    71    68    1
    76    72    71    1
    77     8    73    1
    78     8    74    1
    79    11    75    1
    80    11    76    1
    81    22    77    1
    82    22    78    1
    83    23    79    1
    84    23    80    1
    85    24    81    1
    86    25    82    1
    87    25    83    1
    88    26    84    1
    89    26    85    1
    90    28    86    1
    91    29    87    1
    92    30    88    1
    93    31    89    1
    94    32    90    1
    95    40    91    1
    96    40    92    1
    97    43    93    1
    98    46    94    1
    99    50    95    1
   100    50    96    1
   101    51    97    1
   102    51    98    1
   103    55    99    1
   104    55   100    1
   105    56   101    1
   106    57   102    1
   107    58   103    1
   108    58   104    1
   109    61   105    1
   110    61   106    1
   111    64   107    1
   112    67   108    1
   113    71   109    1
   114    71   110    1
   115    72   111    1
