REMARK  28 active torsions:
REMARK  status: ('A' for Active; 'I' for Inactive)
REMARK    1  A    between atoms: O_2  and  C_1 
REMARK    2  A    between atoms: C_3  and  O_2 
REMARK    3  A    between atoms: N_43  and  C_4 
REMARK    4  A    between atoms: N_7  and  C_6 
REMARK    5  A    between atoms: O_42  and  C_8 
REMARK    6  A    between atoms: O_10  and  C_9 
REMARK    7  A    between atoms: C_11  and  O_10 
REMARK    8  A    between atoms: O_13  and  C_12 
REMARK    9  A    between atoms: C_14  and  O_13 
REMARK   10  A    between atoms: C_15  and  C_14 
REMARK   11  A    between atoms: N_16  and  C_15 
REMARK   12  A    between atoms: C_17  and  N_16 
REMARK   13  A    between atoms: C_18  and  C_17 
REMARK   14  A    between atoms: C_19  and  C_18 
REMARK   15  A    between atoms: O_26  and  C_25 
REMARK   16  A    between atoms: C_27  and  O_26 
REMARK   17  A    between atoms: N_29  and  C_28 
REMARK   18  A    between atoms: O_31  and  C_30 
REMARK   19  A    between atoms: O_33  and  C_32 
REMARK   20  A    between atoms: C_36  and  C_34 
REMARK   21  A    between atoms: N_37  and  C_36 
REMARK   22  A    between atoms: C_40  and  C_38 
REMARK   23  A    between atoms: O_41  and  C_40 
REMARK   24  A    between atoms: N_45  and  C_44 
REMARK   25  A    between atoms: O_47  and  C_46 
REMARK   26  A    between atoms: O_49  and  C_48 
REMARK   27  A    between atoms: C_52  and  C_50 
REMARK   28  A    between atoms: O_53  and  C_52 
ROOT
ATOM      1  C   UNL d   1       0.166   0.105  -1.627  0.00  0.00     0.292 C 
ATOM      2  C   UNL d   1      -1.230   0.754  -1.794  0.00  0.00     0.208 C 
ATOM      3  C   UNL d   1      -1.911   0.161  -0.539  0.00  0.00     0.189 C 
ATOM      4  C   UNL d   1      -1.451  -1.298  -0.679  0.00  0.00     0.180 C 
ATOM      5  O   UNL d   1      -0.112  -1.250  -1.221  0.00  0.00    -0.348 OA
ENDROOT
BRANCH   1   6
ATOM      6  O   UNL d   1       1.032   0.164  -2.763  0.00  0.00    -0.348 OA
BRANCH   6   7
ATOM      7  C   UNL d   1       2.003  -0.925  -2.867  0.00  0.00     0.186 C 
ATOM      8  C   UNL d   1       1.289  -2.088  -3.616  0.00  0.00     0.182 C 
ATOM      9  C   UNL d   1       1.561  -3.526  -3.142  0.00  0.00     0.251 C 
ATOM     10  C   UNL d   1       1.638  -3.628  -1.627  0.00  0.00     0.076 C 
ATOM     11  C   UNL d   1       2.786  -2.767  -1.129  0.00  0.00     0.251 C 
ATOM     12  C   UNL d   1       2.739  -1.267  -1.538  0.00  0.00     0.189 C 
BRANCH   8  13
ATOM     13  O   UNL d   1       1.563  -2.039  -5.036  0.00  0.00    -0.391 OA
ATOM     14  H   UNL d   1       2.525  -1.950  -5.150  0.00  0.00     0.210 HD
ENDBRANCH   8  13
BRANCH   9  15
ATOM     15  N   UNL d   1       0.510  -4.430  -3.644  0.00  0.00     0.085 N 
ATOM     16  H   UNL d   1       0.394  -4.236  -4.644  0.00  0.00     0.313 HD
ATOM     17  H   UNL d   1       0.836  -5.395  -3.596  0.00  0.00     0.313 HD
ENDBRANCH   9  15
BRANCH  11  18
ATOM     18  N   UNL d   1       2.872  -2.905   0.339  0.00  0.00     0.085 N 
ATOM     19  H   UNL d   1       3.769  -2.534   0.654  0.00  0.00     0.313 HD
ATOM     20  H   UNL d   1       2.148  -2.331   0.773  0.00  0.00     0.313 HD
ENDBRANCH  11  18
BRANCH  12  21
ATOM     21  O   UNL d   1       4.138  -0.944  -1.611  0.00  0.00    -0.349 OA
BRANCH  21  22
ATOM     22  C   UNL d   1       4.618   0.403  -1.572  0.00  0.00     0.296 C 
ATOM     23  C   UNL d   1       5.843   0.428  -0.611  0.00  0.00     0.303 C 
ATOM     24  C   UNL d   1       5.318   0.556   0.827  0.00  0.00     0.187 C 
ATOM     25  C   UNL d   1       4.577   1.881   0.930  0.00  0.00     0.180 C 
ATOM     26  C   UNL d   1       3.356   1.811   0.010  0.00  0.00     0.179 C 
ATOM     27  O   UNL d   1       3.666   1.439  -1.342  0.00  0.00    -0.349 OA
BRANCH  23  28
ATOM     28  N   UNL d   1       6.727  -0.760  -0.727  0.00  0.00     0.090 N 
ATOM     29  H   UNL d   1       6.104  -1.569  -0.796  0.00  0.00     0.313 HD
ATOM     30  H   UNL d   1       7.227  -0.852   0.166  0.00  0.00     0.313 HD
ENDBRANCH  23  28
BRANCH  24  31
ATOM     31  O   UNL d   1       6.393   0.515   1.773  0.00  0.00    -0.391 OA
ATOM     32  H   UNL d   1       6.027   0.918   2.591  0.00  0.00     0.210 HD
ENDBRANCH  24  31
BRANCH  25  33
ATOM     33  O   UNL d   1       4.205   2.072   2.306  0.00  0.00    -0.390 OA
ATOM     34  H   UNL d   1       3.583   2.833   2.316  0.00  0.00     0.210 HD
ENDBRANCH  25  33
BRANCH  26  35
ATOM     35  C   UNL d   1       2.677   3.188  -0.028  0.00  0.00     0.198 C 
BRANCH  35  36
ATOM     36  O   UNL d   1       2.118   3.497   1.253  0.00  0.00    -0.398 OA
ATOM     37  H   UNL d   1       1.304   2.960   1.363  0.00  0.00     0.209 HD
ENDBRANCH  35  36
ENDBRANCH  26  35
ENDBRANCH  21  22
ENDBRANCH  12  21
ENDBRANCH   6   7
ENDBRANCH   1   6
BRANCH   2  38
ATOM     38  O   UNL d   1      -1.352   2.151  -2.055  0.00  0.00    -0.377 OA
BRANCH  38  39
ATOM     39  C   UNL d   1      -0.802   3.065  -1.124  0.00  0.00     0.198 C 
BRANCH  39  40
ATOM     40  C   UNL d   1      -1.804   4.147  -0.656  0.00  0.00     0.295 C 
BRANCH  40  41
ATOM     41  N   UNL d   1      -3.216   3.760  -0.706  0.00  0.00     0.085 N 
ATOM     42  H   UNL d   1      -3.756   4.499  -1.152  0.00  0.00     0.315 HD
BRANCH  41  43
ATOM     43  C   UNL d   1      -3.789   3.416   0.590  0.00  0.00     0.274 C 
BRANCH  43  44
ATOM     44  C   UNL d   1      -5.275   3.017   0.481  0.00  0.00     0.068 C 
BRANCH  44  45
ATOM     45  C   UNL d   1      -5.493   1.714  -0.256  0.00  0.00    -0.057 A 
ATOM     46  C   UNL d   1      -5.522   1.697  -1.659  0.00  0.00     0.007 A 
ATOM     47  C   UNL d   1      -5.832   0.529  -2.354  0.00  0.00     0.001 A 
ATOM     48  C   UNL d   1      -6.129  -0.637  -1.652  0.00  0.00     0.000 A 
ATOM     49  C   UNL d   1      -6.122  -0.633  -0.258  0.00  0.00     0.001 A 
ATOM     50  C   UNL d   1      -5.813   0.539   0.438  0.00  0.00     0.007 A 
ENDBRANCH  44  45
ENDBRANCH  43  44
ENDBRANCH  41  43
ENDBRANCH  40  41
ENDBRANCH  39  40
ENDBRANCH  38  39
ENDBRANCH   2  38
BRANCH   3  51
ATOM     51  O   UNL d   1      -1.339   0.811   0.626  0.00  0.00    -0.348 OA
BRANCH  51  52
ATOM     52  C   UNL d   1      -1.538   0.186   1.891  0.00  0.00     0.296 C 
ATOM     53  C   UNL d   1      -1.347   1.249   3.035  0.00  0.00     0.303 C 
ATOM     54  C   UNL d   1      -1.445   0.522   4.414  0.00  0.00     0.187 C 
ATOM     55  C   UNL d   1      -0.575  -0.752   4.462  0.00  0.00     0.179 C 
ATOM     56  C   UNL d   1      -0.901  -1.638   3.252  0.00  0.00     0.183 C 
ATOM     57  O   UNL d   1      -0.557  -0.849   2.087  0.00  0.00    -0.349 OA
BRANCH  53  58
ATOM     58  N   UNL d   1      -0.066   2.026   2.913  0.00  0.00     0.090 N 
ATOM     59  H   UNL d   1      -0.268   2.997   3.163  0.00  0.00     0.313 HD
ATOM     60  H   UNL d   1       0.579   1.695   3.640  0.00  0.00     0.313 HD
ENDBRANCH  53  58
BRANCH  54  61
ATOM     61  O   UNL d   1      -2.818   0.172   4.649  0.00  0.00    -0.391 OA
ATOM     62  H   UNL d   1      -2.987   0.289   5.604  0.00  0.00     0.210 HD
ENDBRANCH  54  61
BRANCH  55  63
ATOM     63  O   UNL d   1       0.809  -0.378   4.466  0.00  0.00    -0.390 OA
ATOM     64  H   UNL d   1       1.094  -0.366   3.525  0.00  0.00     0.210 HD
ENDBRANCH  55  63
BRANCH  56  65
ATOM     65  C   UNL d   1      -0.055  -2.923   3.231  0.00  0.00     0.301 C 
BRANCH  65  66
ATOM     66  N   UNL d   1      -0.626  -3.924   2.324  0.00  0.00     0.080 N 
ATOM     67  H   UNL d   1      -0.350  -4.858   2.635  0.00  0.00     0.312 HD
ATOM     68  H   UNL d   1      -0.187  -3.813   1.407  0.00  0.00     0.312 HD
ENDBRANCH  65  66
ENDBRANCH  56  65
ENDBRANCH  51  52
ENDBRANCH   3  51
BRANCH   4  69
ATOM     69  C   UNL d   1      -2.384  -2.205  -1.499  0.00  0.00     0.198 C 
BRANCH  69  70
ATOM     70  O   UNL d   1      -2.319  -1.956  -2.897  0.00  0.00    -0.398 OA
ATOM     71  H   UNL d   1      -1.741  -2.641  -3.283  0.00  0.00     0.209 HD
ENDBRANCH  69  70
ENDBRANCH   4  69
TORSDOF 28
