@<TRIPOS>MOLECULE
3SKI_GNG_A_120
 19 21 0 0 0
SMALL
GASTEIGER
****
Coordinates from PDB:3SKI:A:120 Model:1 without hydrogens
@<TRIPOS>ATOM
      1 O5*        -6.5180    7.1550  -59.5280 O.3     1    G1       -0.2176
      2 C5*        -7.3740    7.9650  -58.7310 C.3     1    G1        0.2141
      3 C4*        -8.6660    7.2330  -58.3720 C.3     1    G1        0.1804
      4 O4*        -8.4040    5.8660  -58.0440 O.3     1    G1       -0.3325
      5 C1*        -8.2860    5.6990  -56.6200 C.3     1    G1        0.2095
      6 N9         -6.9010    5.2390  -56.3770 N.ar    1    G1       -0.2713
      7 C8         -5.8130    5.9850  -56.1260 C.ar    1    G1        0.1816
      8 N7         -4.7410    5.1630  -56.0100 N.ar    1    G1       -0.2173
      9 C5         -5.1800    3.8950  -56.1930 C.ar    1    G1        0.1748
     10 C4         -6.5340    3.9520  -56.4320 C.ar    1    G1        0.1722
     11 N3         -7.2320    2.8070  -56.6540 N.ar    1    G1       -0.1918
     12 C2         -6.6220    1.5900  -56.6570 C.ar    1    G1        0.2606
     13 N1         -5.2920    1.4690  -56.4300 N.ar    1    G1       -0.1709
     14 C6         -4.5290    2.5640  -56.2030 C.ar    1    G1        0.3023
     15 O6         -3.3060    2.4520  -55.9940 O.2     1    G1       -0.2633
     16 N2         -7.3570    0.4780  -56.8780 N.pl3   1    G1       -0.0859
     17 C2*        -8.6210    7.0460  -55.9920 C.3     1    G1        0.0894
     18 C3*        -9.2460    7.8400  -57.1190 C.3     1    G1        0.1860
     19 O3*       -10.6520    7.5880  -57.1250 O.3     1    G1       -0.2203
@<TRIPOS>BOND
     1     1     2    1
     2     3     2    1
     3     3     4    1
     4     3    18    1
     5     4     5    1
     6     5     6    1
     7     5    17    1
     8     6     7   ar
     9     6    10   ar
    10     7     8   ar
    11     8     9   ar
    12     9    10   ar
    13     9    14   ar
    14    10    11   ar
    15    11    12   ar
    16    12    13   ar
    17    12    16    1
    18    13    14   ar
    19    14    15    2
    20    17    18    1
    21    18    19    1
