3SKI_GNG_A_120
 OpenBabel10091713573D
Coordinates from PDB:3SKI:A:120 Model:1 without hydrogens
 19 21  0  0  0  0  0  0  0  0999 V2000
   -6.5180    7.1550  -59.5280 O   0  0  0  0  0  0  0  0  0  0  0  0
   -7.3740    7.9650  -58.7310 C   0  0  0  0  0  0  0  0  0  0  0  0
   -8.6660    7.2330  -58.3720 C   0  0  1  0  0  0  0  0  0  0  0  0
   -8.4040    5.8660  -58.0440 O   0  0  0  0  0  0  0  0  0  0  0  0
   -8.2860    5.6990  -56.6200 C   0  0  1  0  0  0  0  0  0  0  0  0
   -6.9010    5.2390  -56.3770 N   0  0  0  0  0  0  0  0  0  0  0  0
   -5.8130    5.9850  -56.1260 C   0  0  0  0  0  0  0  0  0  0  0  0
   -4.7410    5.1630  -56.0100 N   0  0  0  0  0  0  0  0  0  0  0  0
   -5.1800    3.8950  -56.1930 C   0  0  0  0  0  0  0  0  0  0  0  0
   -6.5340    3.9520  -56.4320 C   0  0  0  0  0  0  0  0  0  0  0  0
   -7.2320    2.8070  -56.6540 N   0  0  0  0  0  0  0  0  0  0  0  0
   -6.6220    1.5900  -56.6570 C   0  0  0  0  0  0  0  0  0  0  0  0
   -5.2920    1.4690  -56.4300 N   0  0  0  0  0  0  0  0  0  0  0  0
   -4.5290    2.5640  -56.2030 C   0  0  0  0  0  0  0  0  0  0  0  0
   -3.3060    2.4520  -55.9940 O   0  0  0  0  0  0  0  0  0  0  0  0
   -7.3570    0.4780  -56.8780 N   0  0  0  0  0  0  0  0  0  0  0  0
   -8.6210    7.0460  -55.9920 C   0  0  0  0  0  0  0  0  0  0  0  0
   -9.2460    7.8400  -57.1190 C   0  0  2  0  0  0  0  0  0  0  0  0
  -10.6520    7.5880  -57.1250 O   0  0  0  0  0  0  0  0  0  0  0  0
  1  2  1  0  0  0  0
  3  2  1  1  0  0  0
  3  4  1  0  0  0  0
  3 18  1  0  0  0  0
  4  5  1  0  0  0  0
  5  6  1  6  0  0  0
  5 17  1  0  0  0  0
  6  7  1  0  0  0  0
  6 10  1  0  0  0  0
  7  8  2  0  0  0  0
  8  9  1  0  0  0  0
  9 10  2  0  0  0  0
  9 14  1  0  0  0  0
 10 11  1  0  0  0  0
 11 12  1  0  0  0  0
 12 13  2  0  0  0  0
 12 16  1  0  0  0  0
 13 14  1  0  0  0  0
 14 15  2  0  0  0  0
 17 18  1  0  0  0  0
 18 19  1  6  0  0  0
A    1
O5'
A    2
C5'
A    3
C4'
A    4
O4'
A    5
C1'
A    6
N9
A    7
C8
A    8
N7
A    9
C5
A   10
C4
A   11
N3
A   12
C2
A   13
N1
A   14
C6
A   15
O6
A   16
N2
A   17
C2'
A   18
C3'
A   19
O3'
M  END
>  <InstanceId>
3SKI_GNG_A_120

>  <ChemCompId>
GNG

>  <PdbId>
3SKI

>  <ChainId>
A

>  <ResidueNumber>
120

>  <InsertionCode>


>  <Model>
1

>  <AltIds>


>  <MissingHeavyAtoms>
0

>  <ObservedFormula>
C10 N5 O4

>  <Name>
2'-DEOXY-GUANOSINE

>  <SystematicName>
2-amino-9-[(2R,4S,5R)-4-hydroxy-5-(hydroxymethyl)oxolan-2-yl]-3H-purin-6-one

>  <Synonyms>


>  <Type>
NON-POLYMER

>  <Formula>
C10 H13 N5 O4

>  <MolecularWeight>
267.241

>  <ModifiedDate>
2011-06-04

>  <Parent>
G

>  <OneLetterCode>


>  <SubcomponentList>


>  <AmbiguousFlag>
N

>  <InChI>
InChI=1S/C10H13N5O4/c11-10-13-8-7(9(18)14-10)12-3-15(8)6-1-4(17)5(2-16)19-6/h3-6,16-17H,1-2H2,(H3,11,13,14,18)/t4-,5+,6+/m0/s1

>  <InChIKey>
YKBGVTZYEHREMT-KVQBGUIXSA-N

>  <SMILES>
c1nc2c(n1[C@H]3C[C@@H]([C@H](O3)CO)O)NC(=NC2=O)N

$$$$
