REMARK  2 active torsions:
REMARK  status: ('A' for Active; 'I' for Inactive)
REMARK    1  A    between atoms: C4*_3  and  C5*_2 
REMARK    2  A    between atoms: C1*_5  and  N9_6 
ROOT
ATOM      1  N9   G1 d          -6.901   5.239 -56.377  0.00  0.00    -0.271 N 
ATOM      2  C8   G1 d          -5.813   5.985 -56.126  0.00  0.00     0.182 A 
ATOM      3  N7   G1 d          -4.741   5.163 -56.010  0.00  0.00    -0.217 NA
ATOM      4  C5   G1 d          -5.180   3.895 -56.193  0.00  0.00     0.176 A 
ATOM      5  C4   G1 d          -6.534   3.952 -56.432  0.00  0.00     0.188 A 
ATOM      6  N3   G1 d          -7.232   2.807 -56.654  0.00  0.00    -0.038 NA
ATOM      7  C2   G1 d          -6.622   1.590 -56.657  0.00  0.00     0.773 A 
ATOM      8  N1   G1 d          -5.292   1.469 -56.430  0.00  0.00    -0.016 NA
ATOM      9  C6   G1 d          -4.529   2.564 -56.203  0.00  0.00     0.316 A 
ATOM     10  O6   G1 d          -3.306   2.452 -55.994  0.00  0.00    -0.263 OA
ATOM     11  N2   G1 d          -7.357   0.478 -56.878  0.00  0.00     0.062 N 
ENDROOT
BRANCH   1  12
ATOM     12  C1*  G1 d          -8.286   5.699 -56.620  0.00  0.00     0.210 C 
ATOM     13  O4*  G1 d          -8.404   5.866 -58.044  0.00  0.00    -0.333 OA
ATOM     14  C4*  G1 d          -8.666   7.233 -58.372  0.00  0.00     0.181 C 
ATOM     15  C3*  G1 d          -9.246   7.840 -57.119  0.00  0.00     0.186 C 
ATOM     16  C2*  G1 d          -8.621   7.046 -55.992  0.00  0.00     0.090 C 
ATOM     17  O3*  G1 d         -10.652   7.588 -57.125  0.00  0.00    -0.221 OA
BRANCH  14  18
ATOM     18  C5*  G1 d          -7.374   7.965 -58.731  0.00  0.00     0.214 C 
ATOM     19  O5*  G1 d          -6.518   7.155 -59.528  0.00  0.00    -0.218 OA
ENDBRANCH  14  18
ENDBRANCH   1  12
TORSDOF 2
