3SKI_GNG_A_120
 OpenBabel10091713573D
Coordinates from PDB:3SKI:A:120 Model:1 without hydrogens
 32 34  0  0  1  0  0  0  0  0999 V2000
   -6.5180    7.1550  -59.5280 O   0  0  0  0  0  0  0  0  0  0  0  0
   -7.3740    7.9650  -58.7310 C   0  0  0  0  0  0  0  0  0  0  0  0
   -8.6660    7.2330  -58.3720 C   0  0  1  0  0  0  0  0  0  0  0  0
   -8.4040    5.8660  -58.0440 O   0  0  0  0  0  0  0  0  0  0  0  0
   -8.2860    5.6990  -56.6200 C   0  0  1  0  0  0  0  0  0  0  0  0
   -6.9010    5.2390  -56.3770 N   0  0  0  0  0  0  0  0  0  0  0  0
   -5.8130    5.9850  -56.1260 C   0  0  0  0  0  0  0  0  0  0  0  0
   -4.7410    5.1630  -56.0100 N   0  0  0  0  0  0  0  0  0  0  0  0
   -5.1800    3.8950  -56.1930 C   0  0  0  0  0  0  0  0  0  0  0  0
   -6.5340    3.9520  -56.4320 C   0  0  0  0  0  0  0  0  0  0  0  0
   -7.2320    2.8070  -56.6540 N   0  0  0  0  0  0  0  0  0  0  0  0
   -6.6220    1.5900  -56.6570 C   0  0  0  0  0  0  0  0  0  0  0  0
   -5.2920    1.4690  -56.4300 N   0  0  0  0  0  0  0  0  0  0  0  0
   -4.5290    2.5640  -56.2030 C   0  0  0  0  0  0  0  0  0  0  0  0
   -3.3060    2.4520  -55.9940 O   0  0  0  0  0  0  0  0  0  0  0  0
   -7.3570    0.4780  -56.8780 N   0  0  0  0  0  0  0  0  0  0  0  0
   -8.6210    7.0460  -55.9920 C   0  0  0  0  0  0  0  0  0  0  0  0
   -9.2460    7.8400  -57.1190 C   0  0  2  0  0  0  0  0  0  0  0  0
  -10.6520    7.5880  -57.1250 O   0  0  0  0  0  0  0  0  0  0  0  0
   -5.7093    7.6480  -59.7377 H   0  0  0  0  0  0  0  0  0  0  0  0
   -7.6178    8.8532  -59.2755 H   0  0  0  0  0  0  0  0  0  0  0  0
   -6.8603    8.2027  -57.8230 H   0  0  0  0  0  0  0  0  0  0  0  0
   -9.3229    7.3088  -59.2132 H   0  0  0  0  0  0  0  0  0  0  0  0
   -8.9488    4.9786  -56.1880 H   0  0  0  0  0  0  0  0  0  0  0  0
   -5.7957    7.0130  -56.0363 H   0  0  0  0  0  0  0  0  0  0  0  0
   -8.2016    2.8590  -56.8165 H   0  0  0  0  0  0  0  0  0  0  0  0
   -8.3245    0.5524  -57.0442 H   0  0  0  0  0  0  0  0  0  0  0  0
   -6.9250   -0.4067  -56.8728 H   0  0  0  0  0  0  0  0  0  0  0  0
   -7.7352    7.5282  -55.6346 H   0  0  0  0  0  0  0  0  0  0  0  0
   -9.2722    6.9526  -55.1481 H   0  0  0  0  0  0  0  0  0  0  0  0
   -9.0679    8.8916  -57.0328 H   0  0  0  0  0  0  0  0  0  0  0  0
  -10.8092    6.6340  -57.2032 H   0  0  0  0  0  0  0  0  0  0  0  0
  1  2  1  0  0  0  0
  1 20  1  0  0  0  0
  2  3  1  0  0  0  0
  2 21  1  0  0  0  0
  2 22  1  0  0  0  0
  3  4  1  0  0  0  0
  3 18  1  0  0  0  0
  3 23  1  6  0  0  0
  4  5  1  0  0  0  0
  5  6  1  0  0  0  0
  5 17  1  0  0  0  0
  5 24  1  1  0  0  0
  6  7  1  0  0  0  0
  6 10  1  0  0  0  0
  7  8  2  0  0  0  0
  7 25  1  0  0  0  0
  8  9  1  0  0  0  0
  9 10  2  0  0  0  0
  9 14  1  0  0  0  0
 10 11  1  0  0  0  0
 11 12  1  0  0  0  0
 11 26  1  0  0  0  0
 12 13  2  0  0  0  0
 12 16  1  0  0  0  0
 13 14  1  0  0  0  0
 14 15  2  0  0  0  0
 16 27  1  0  0  0  0
 16 28  1  0  0  0  0
 17 18  1  0  0  0  0
 17 29  1  0  0  0  0
 17 30  1  0  0  0  0
 18 19  1  0  0  0  0
 18 31  1  1  0  0  0
 19 32  1  0  0  0  0
M  END
$$$$
