@<TRIPOS>MOLECULE
ligand.pdb
 45 47 0 0 0
SMALL
GASTEIGER

@<TRIPOS>ATOM
      1 P          70.3910   11.4740    0.2270 P.3     1  UNL1        0.2155
      2 O          71.6380   12.2590    0.3270 O.2     1  UNL1       -0.5171
      3 O          69.3550   11.8540   -0.7560 O.3     1  UNL1       -0.4372
      4 O          70.7780    9.9330   -0.0100 O.3     1  UNL1       -0.3434
      5 O          69.7110   11.4470    1.6670 O.3     1  UNL1       -0.2703
      6 P          68.7840   10.2090    2.0320 P.3     1  UNL1        0.2237
      7 O          67.8440   10.6300    3.0890 O.2     1  UNL1       -0.5168
      8 O          69.6520    9.0310    2.2380 O.3     1  UNL1       -0.4369
      9 O          67.9610    9.9880    0.6940 O.3     1  UNL1       -0.2701
     10 P          66.6470    9.1010    0.7770 P.3     1  UNL1        0.2182
     11 O          65.4980   10.0090    0.9670 O.2     1  UNL1       -0.5170
     12 O          66.8980    8.0110    1.7440 O.3     1  UNL1       -0.4371
     13 O          66.5620    8.4680   -0.7000 O.3     1  UNL1       -0.3246
     14 C          66.9420    7.1030   -0.9410 C.3     1  UNL1        0.0836
     15 C          67.5340    6.9000   -2.3280 C.3     1  UNL1        0.1133
     16 O          68.9650    7.0780   -2.3000 O.3     1  UNL1       -0.3456
     17 C          67.2380    5.4990   -2.8400 C.3     1  UNL1        0.1135
     18 O          66.4080    5.5450   -4.0070 O.3     1  UNL1       -0.3864
     19 C          68.5730    4.8640   -3.1480 C.3     1  UNL1        0.1285
     20 O          68.6550    4.4690   -4.5240 O.3     1  UNL1       -0.3847
     21 C          69.6280    5.9070   -2.8220 C.3     1  UNL1        0.1667
     22 N          70.6040    5.3770   -1.8500 N.ar    1  UNL1       -0.2854
     23 C          71.8410    4.8630   -2.0630 C.ar    1  UNL1        0.1005
     24 N          72.5090    4.4570   -1.0330 N.ar    1  UNL1       -0.2286
     25 C          71.6120    4.7310    0.0050 C.ar    1  UNL1        0.1721
     26 C          71.7480    4.5200    1.3990 C.ar    1  UNL1        0.2803
     27 O          72.7060    4.0630    2.0080 O.2     1  UNL1       -0.2654
     28 N          70.6230    4.9330    2.0900 N.ar    1  UNL1       -0.2934
     29 C          69.5000    5.4840    1.5200 C.ar    1  UNL1        0.1950
     30 N          68.5240    5.8220    2.3520 N.pl3   1  UNL1       -0.3289
     31 N          69.3570    5.6890    0.2130 N.ar    1  UNL1       -0.1963
     32 C          70.4450    5.2930   -0.4870 C.ar    1  UNL1        0.1712
     33 H          71.4840    9.9160   -0.6580 H       1  UNL1        0.2176
     34 H          66.0650    6.4720   -0.8780 H       1  UNL1        0.0591
     35 H          67.6720    6.8000   -0.1760 H       1  UNL1        0.0591
     36 H          67.0990    7.6280   -3.0110 H       1  UNL1        0.0647
     37 H          66.7400    4.9250   -2.0560 H       1  UNL1        0.0647
     38 H          66.9390    5.2350   -4.7480 H       1  UNL1        0.2100
     39 H          68.7150    3.9940   -2.5050 H       1  UNL1        0.0665
     40 H          69.5700    4.5980   -4.8050 H       1  UNL1        0.2101
     41 H          70.1540    6.1760   -3.7370 H       1  UNL1        0.0866
     42 H          72.2590    4.7950   -3.0680 H       1  UNL1        0.1030
     43 H          70.6570    4.8200    3.0900 H       1  UNL1        0.1716
     44 H          68.6280    5.6680    3.3430 H       1  UNL1        0.1451
     45 H          67.6760    6.2330    1.9900 H       1  UNL1        0.1451
@<TRIPOS>BOND
     1     1     2    2
     2     1     3    1
     3     1     4    1
     4     1     5    1
     5     4    33    1
     6     5     6    1
     7     6     7    2
     8     6     8    1
     9     6     9    1
    10     9    10    1
    11    10    11    2
    12    10    12    1
    13    10    13    1
    14    13    14    1
    15    14    15    1
    16    14    34    1
    17    14    35    1
    18    15    16    1
    19    15    17    1
    20    15    36    1
    21    16    21    1
    22    17    18    1
    23    17    19    1
    24    17    37    1
    25    18    38    1
    26    19    20    1
    27    19    21    1
    28    19    39    1
    29    20    40    1
    30    21    22    1
    31    21    41    1
    32    22    23   ar
    33    22    32   ar
    34    23    24   ar
    35    23    42    1
    36    24    25   ar
    37    25    26   ar
    38    25    32   ar
    39    26    27    2
    40    26    28   ar
    41    28    29   ar
    42    28    43    1
    43    29    30    1
    44    29    31   ar
    45    30    44    1
    46    30    45    1
    47    31    32   ar
