@<TRIPOS>MOLECULE
2OE5_AM2_B_101
 78 81 0 0 0
SMALL
GASTEIGER

@<TRIPOS>ATOM
      1 C          -2.7527    2.5617   -1.5392 C.3     1  UNL1        0.1752
      2 H          -3.4575    3.3131   -1.9188 H       1  UNL1        0.0926
      3 C          -2.6313    1.4640   -2.6266 C.3     1  UNL1        0.0590
      4 H          -2.4027    1.9657   -3.5768 H       1  UNL1        0.0509
      5 C          -1.4654    0.5134   -2.3017 C.3     1  UNL1       -0.0040
      6 C          -0.1959    1.3363   -2.1263 C.3     1  UNL1        0.0920
      7 H          -0.0040    1.8216   -3.0881 H       1  UNL1        0.0624
      8 C          -0.3959    2.3748   -1.0271 C.3     1  UNL1        0.1153
      9 H          -0.5852    1.8906   -0.0621 H       1  UNL1        0.0649
     10 C           0.8628    3.2284   -0.9703 C.3     1  UNL1        0.1038
     11 H           0.7471    4.0102   -0.2087 H       1  UNL1        0.0637
     12 C           2.0839    2.3500   -0.6446 C.3     1  UNL1        0.0877
     13 H           2.2330    2.4323    0.4409 H       1  UNL1        0.0537
     14 C           1.8787    0.8285   -0.9281 C.3     1  UNL1        0.1803
     15 H           2.8203    0.4107   -1.3138 H       1  UNL1        0.0928
     16 O           0.9043    0.4589   -1.8988 O.3     1  UNL1       -0.3436
     17 O           1.5954    0.1922    0.3313 O.3     1  UNL1       -0.3184
     18 C           2.4251   -0.9407    0.6020 C.3     1  UNL1        0.1908
     19 H           2.3888   -1.6021   -0.2805 H       1  UNL1        0.0938
     20 C           1.9215   -1.7265    1.7932 C.3     1  UNL1        0.1332
     21 H           2.5719   -2.5961    1.9569 H       1  UNL1        0.0671
     22 C           1.8826   -0.8440    3.0411 C.3     1  UNL1        0.1033
     23 H           0.9259   -0.3108    3.0632 H       1  UNL1        0.0637
     24 C           3.0690    0.1302    3.1668 C.3     1  UNL1        0.0626
     25 H           3.6553   -0.1449    4.0491 H       1  UNL1        0.0511
     26 C           4.0137    0.2754    1.9426 C.3     1  UNL1        0.1023
     27 H           3.9374    1.2760    1.5023 H       1  UNL1        0.0636
     28 C           5.4835    0.0851    2.3572 C.3     1  UNL1        0.0720
     29 O           5.9888    1.3026    2.8891 O.3     1  UNL1       -0.3924
     30 O           3.7886   -0.6366    0.8635 O.3     1  UNL1       -0.3415
     31 N           2.5304    1.4762    3.4607 N.3     1  UNL1       -0.3230
     32 O           1.8728   -1.7157    4.1754 O.3     1  UNL1       -0.3874
     33 O           0.6136   -2.2218    1.5247 O.3     1  UNL1       -0.3841
     34 N           3.3123    2.8384   -1.2994 N.3     1  UNL1       -0.3099
     35 C           3.8735    4.0090   -0.6298 C.3     1  UNL1       -0.0153
     36 O           1.0243    3.8952   -2.2227 O.3     1  UNL1       -0.3874
     37 O          -1.4974    3.2344   -1.3548 O.3     1  UNL1       -0.3413
     38 N          -3.8826    0.7355   -2.8262 N.3     1  UNL1       -0.3231
     39 O          -3.3288    2.0011   -0.3570 O.3     1  UNL1       -0.3423
     40 C          -3.3912    2.8159    0.8329 C.3     1  UNL1        0.1051
     41 H          -2.3655    3.0032    1.1686 H       1  UNL1        0.0639
     42 C          -4.1739    4.1202    0.6205 C.3     1  UNL1        0.1101
     43 H          -5.1036    3.8865    0.0765 H       1  UNL1        0.0646
     44 C          -4.5014    4.8858    1.9088 C.3     1  UNL1        0.0986
     45 H          -3.9380    5.8295    1.9419 H       1  UNL1        0.0635
     46 C          -4.3022    4.1538    3.2414 C.3     1  UNL1        0.0351
     47 H          -5.0490    4.5210    3.9585 H       1  UNL1        0.0485
     48 C          -4.3996    2.6199    3.2098 C.3     1  UNL1       -0.0175
     49 C          -4.1618    1.9517    1.8486 C.3     1  UNL1        0.0355
     50 H          -5.1479    1.7250    1.4202 H       1  UNL1        0.0485
     51 N          -3.4914    0.6675    2.0600 N.3     1  UNL1       -0.3250
     52 N          -2.9938    4.5320    3.8123 N.3     1  UNL1       -0.3250
     53 O          -5.8786    5.2854    1.8209 O.3     1  UNL1       -0.3876
     54 O          -3.4198    5.0178   -0.1960 O.3     1  UNL1       -0.3866
     55 H          -1.3354   -0.2220   -3.1070 H       1  UNL1        0.0308
     56 H          -1.6748   -0.0714   -1.3979 H       1  UNL1        0.0308
     57 H           5.5955   -0.6981    3.1112 H       1  UNL1        0.0583
     58 H           6.1027   -0.1891    1.4973 H       1  UNL1        0.0583
     59 H           6.3850    1.7963    2.1495 H       1  UNL1        0.2095
     60 H           1.9931    1.4572    4.3238 H       1  UNL1        0.1186
     61 H           1.8752    1.7469    2.7300 H       1  UNL1        0.1186
     62 H           1.5952   -1.1899    4.9448 H       1  UNL1        0.2100
     63 H           0.4606   -2.9696    2.1265 H       1  UNL1        0.2101
     64 H           4.0180    2.1013   -1.2972 H       1  UNL1        0.1221
     65 H           4.8446    4.2489   -1.0767 H       1  UNL1        0.0388
     66 H           4.0364    3.8328    0.4402 H       1  UNL1        0.0388
     67 H           3.2278    4.8852   -0.7534 H       1  UNL1        0.0388
     68 H           0.5135    4.7219   -2.1822 H       1  UNL1        0.2100
     69 H          -4.6244    1.1368   -2.2520 H       1  UNL1        0.1186
     70 H          -3.7781   -0.2309   -2.5194 H       1  UNL1        0.1186
     71 H          -5.3954    2.3072    3.5585 H       1  UNL1        0.0297
     72 H          -3.7105    2.1935    3.9529 H       1  UNL1        0.0297
     73 H          -3.3886    0.1957    1.1606 H       1  UNL1        0.1185
     74 H          -4.0949    0.0645    2.6202 H       1  UNL1        0.1185
     75 H          -2.2595    3.9437    3.4218 H       1  UNL1        0.1185
     76 H          -3.0035    4.3502    4.8167 H       1  UNL1        0.1185
     77 H          -5.9094    6.0891    1.2678 H       1  UNL1        0.2100
     78 H          -4.0492    5.4940   -0.7670 H       1  UNL1        0.2100
@<TRIPOS>BOND
     1     1     2    1
     2     1     3    1
     3     1    37    1
     4     1    39    1
     5     3     5    1
     6     3    38    1
     7     3     4    1
     8     5     6    1
     9     5    55    1
    10     5    56    1
    11     6     7    1
    12     6     8    1
    13     6    16    1
    14     8     9    1
    15     8    10    1
    16     8    37    1
    17    10    11    1
    18    10    12    1
    19    10    36    1
    20    12    13    1
    21    12    14    1
    22    12    34    1
    23    14    16    1
    24    14    17    1
    25    14    15    1
    26    18    20    1
    27    18    30    1
    28    18    19    1
    29    18    17    1
    30    20    22    1
    31    20    33    1
    32    20    21    1
    33    22    24    1
    34    22    32    1
    35    22    23    1
    36    24    25    1
    37    24    26    1
    38    24    31    1
    39    26    30    1
    40    26    28    1
    41    26    27    1
    42    28    29    1
    43    28    57    1
    44    28    58    1
    45    29    59    1
    46    31    60    1
    47    31    61    1
    48    32    62    1
    49    33    63    1
    50    34    35    1
    51    34    64    1
    52    35    65    1
    53    35    66    1
    54    35    67    1
    55    36    68    1
    56    38    69    1
    57    38    70    1
    58    39    40    1
    59    40    41    1
    60    40    42    1
    61    42    44    1
    62    42    54    1
    63    42    43    1
    64    44    46    1
    65    44    53    1
    66    44    45    1
    67    46    47    1
    68    46    48    1
    69    46    52    1
    70    48    49    1
    71    48    71    1
    72    48    72    1
    73    49    50    1
    74    49    40    1
    75    49    51    1
    76    51    73    1
    77    51    74    1
    78    52    75    1
    79    52    76    1
    80    53    77    1
    81    54    78    1
