REMARK  16 active torsions:
REMARK  status: ('A' for Active; 'I' for Inactive)
REMARK    1  A    between atoms: C_1  and  O_27 
REMARK    2  A    between atoms: C_2  and  N_26 
REMARK    3  A    between atoms: C_6  and  O_24 
REMARK    4  A    between atoms: C_7  and  N_22 
REMARK    5  A    between atoms: C_8  and  O_10 
REMARK    6  A    between atoms: C_11  and  O_10 
REMARK    7  A    between atoms: C_12  and  O_21 
REMARK    8  A    between atoms: C_13  and  O_20 
REMARK    9  A    between atoms: C_14  and  N_19 
REMARK   10  A    between atoms: C_15  and  C_16 
REMARK   11  A    between atoms: C_16  and  O_17 
REMARK   12  A    between atoms: O_27  and  C_28 
REMARK   13  A    between atoms: C_29  and  O_37 
REMARK   14  A    between atoms: C_30  and  O_36 
REMARK   15  A    between atoms: C_31  and  N_35 
REMARK   16  A    between atoms: C_33  and  N_34 
ROOT
ATOM      1  C   UNL d   1      -2.753   2.562  -1.539  0.00  0.00     0.293 C 
ATOM      2  C   UNL d   1      -2.631   1.464  -2.627  0.00  0.00     0.275 C 
ATOM      3  C   UNL d   1      -1.465   0.513  -2.302  0.00  0.00     0.075 C 
ATOM      4  C   UNL d   1      -0.196   1.336  -2.126  0.00  0.00     0.158 C 
ATOM      5  C   UNL d   1      -0.396   2.375  -1.027  0.00  0.00     0.184 C 
ATOM      6  C   UNL d   1       0.863   3.228  -0.970  0.00  0.00     0.187 C 
ATOM      7  C   UNL d   1       2.084   2.350  -0.645  0.00  0.00     0.305 C 
ATOM      8  C   UNL d   1       1.879   0.829  -0.928  0.00  0.00     0.299 C 
ATOM      9  O   UNL d   1       0.904   0.459  -1.899  0.00  0.00    -0.351 OA
ATOM     10  O   UNL d   1      -1.497   3.234  -1.355  0.00  0.00    -0.349 OA
ENDROOT
BRANCH   1  11
ATOM     11  O   UNL d   1      -3.329   2.001  -0.357  0.00  0.00    -0.349 OA
BRANCH  11  12
ATOM     12  C   UNL d   1      -3.391   2.816   0.833  0.00  0.00     0.189 C 
ATOM     13  C   UNL d   1      -4.174   4.120   0.621  0.00  0.00     0.180 C 
ATOM     14  C   UNL d   1      -4.501   4.886   1.909  0.00  0.00     0.182 C 
ATOM     15  C   UNL d   1      -4.302   4.154   3.241  0.00  0.00     0.251 C 
ATOM     16  C   UNL d   1      -4.400   2.620   3.210  0.00  0.00     0.076 C 
ATOM     17  C   UNL d   1      -4.162   1.952   1.849  0.00  0.00     0.251 C 
BRANCH  13  18
ATOM     18  O   UNL d   1      -3.420   5.018  -0.196  0.00  0.00    -0.390 OA
ATOM     19  H   UNL d   1      -4.049   5.494  -0.767  0.00  0.00     0.210 HD
ENDBRANCH  13  18
BRANCH  14  20
ATOM     20  O   UNL d   1      -5.879   5.285   1.821  0.00  0.00    -0.391 OA
ATOM     21  H   UNL d   1      -5.909   6.089   1.268  0.00  0.00     0.210 HD
ENDBRANCH  14  20
BRANCH  15  22
ATOM     22  N   UNL d   1      -2.994   4.532   3.812  0.00  0.00     0.085 N 
ATOM     23  H   UNL d   1      -2.260   3.944   3.422  0.00  0.00     0.313 HD
ATOM     24  H   UNL d   1      -3.003   4.350   4.817  0.00  0.00     0.313 HD
ENDBRANCH  15  22
BRANCH  17  25
ATOM     25  N   UNL d   1      -3.491   0.667   2.060  0.00  0.00     0.085 N 
ATOM     26  H   UNL d   1      -3.389   0.196   1.161  0.00  0.00     0.313 HD
ATOM     27  H   UNL d   1      -4.095   0.065   2.620  0.00  0.00     0.313 HD
ENDBRANCH  17  25
ENDBRANCH  11  12
ENDBRANCH   1  11
BRANCH   2  28
ATOM     28  N   UNL d   1      -3.883   0.736  -2.826  0.00  0.00     0.087 N 
ATOM     29  H   UNL d   1      -4.624   1.137  -2.252  0.00  0.00     0.313 HD
ATOM     30  H   UNL d   1      -3.778  -0.231  -2.519  0.00  0.00     0.313 HD
ENDBRANCH   2  28
BRANCH   6  31
ATOM     31  O   UNL d   1       1.024   3.895  -2.223  0.00  0.00    -0.391 OA
ATOM     32  H   UNL d   1       0.513   4.722  -2.182  0.00  0.00     0.210 HD
ENDBRANCH   6  31
BRANCH   7  33
ATOM     33  N   UNL d   1       3.312   2.838  -1.299  0.00  0.00     0.091 N 
ATOM     34  C   UNL d   1       3.873   4.009  -0.630  0.00  0.00     0.307 C 
ATOM     35  H   UNL d   1       4.018   2.101  -1.297  0.00  0.00     0.316 HD
ENDBRANCH   7  33
BRANCH   8  36
ATOM     36  O   UNL d   1       1.595   0.192   0.331  0.00  0.00    -0.327 OA
BRANCH  36  37
ATOM     37  C   UNL d   1       2.425  -0.941   0.602  0.00  0.00     0.294 C 
ATOM     38  C   UNL d   1       1.921  -1.726   1.793  0.00  0.00     0.204 C 
ATOM     39  C   UNL d   1       1.883  -0.844   3.041  0.00  0.00     0.187 C 
ATOM     40  C   UNL d   1       3.069   0.130   3.167  0.00  0.00     0.279 C 
ATOM     41  C   UNL d   1       4.014   0.275   1.943  0.00  0.00     0.183 C 
ATOM     42  O   UNL d   1       3.789  -0.637   0.864  0.00  0.00    -0.349 OA
BRANCH  38  43
ATOM     43  O   UNL d   1       0.614  -2.222   1.525  0.00  0.00    -0.388 OA
ATOM     44  H   UNL d   1       0.461  -2.970   2.127  0.00  0.00     0.210 HD
ENDBRANCH  38  43
BRANCH  39  45
ATOM     45  O   UNL d   1       1.873  -1.716   4.175  0.00  0.00    -0.391 OA
ATOM     46  H   UNL d   1       1.595  -1.190   4.945  0.00  0.00     0.210 HD
ENDBRANCH  39  45
BRANCH  40  47
ATOM     47  N   UNL d   1       2.530   1.476   3.461  0.00  0.00     0.088 N 
ATOM     48  H   UNL d   1       1.993   1.457   4.324  0.00  0.00     0.313 HD
ATOM     49  H   UNL d   1       1.875   1.747   2.730  0.00  0.00     0.313 HD
ENDBRANCH  40  47
BRANCH  41  50
ATOM     50  C   UNL d   1       5.484   0.085   2.357  0.00  0.00     0.198 C 
BRANCH  50  51
ATOM     51  O   UNL d   1       5.989   1.303   2.889  0.00  0.00    -0.398 OA
ATOM     52  H   UNL d   1       6.385   1.796   2.150  0.00  0.00     0.209 HD
ENDBRANCH  50  51
ENDBRANCH  41  50
ENDBRANCH  36  37
ENDBRANCH   8  36
TORSDOF 16
