1LC4_TOY_A_47
 OpenBabel03221816523D

 69 71  0  0  1  0  0  0  0  0999 V2000
   -1.6044    3.6693   -0.8779 C   0  0  2  0  0  0  0  0  0  0  0  0
   -1.6124    4.6586   -0.4150 H   0  0  0  0  0  0  0  0  0  0  0  0
   -0.9914    2.7699    0.0672 O   0  0  0  0  0  0  0  0  0  0  0  0
    0.4445    2.8745    0.1693 C   0  0  2  0  0  0  0  0  0  0  0  0
    0.8649    2.6870   -0.8270 H   0  0  0  0  0  0  0  0  0  0  0  0
    0.9551    1.7778    1.1486 C   0  0  2  0  0  0  0  0  0  0  0  0
    0.6165    2.0247    2.1634 H   0  0  0  0  0  0  0  0  0  0  0  0
    2.4831    1.7407    1.1188 C   0  0  0  0  0  0  0  0  0  0  0  0
    3.0918    3.0695    1.5679 C   0  0  1  0  0  0  0  0  0  0  0  0
    2.9071    3.2104    2.6407 H   0  0  0  0  0  0  0  0  0  0  0  0
    4.5549    2.9480    1.3990 N   0  0  0  0  0  0  0  0  0  0  0  0
    2.5000    4.2920    0.8094 C   0  0  1  0  0  0  0  0  0  0  0  0
    2.8940    4.3331   -0.2149 H   0  0  0  0  0  0  0  0  0  0  0  0
    0.9496    4.2333    0.7208 C   0  0  1  0  0  0  0  0  0  0  0  0
    0.5080    4.4114    1.7073 H   0  0  0  0  0  0  0  0  0  0  0  0
    0.5083    5.3261   -0.0952 O   0  0  0  0  0  0  0  0  0  0  0  0
    2.7875    5.5480    1.4518 O   0  0  0  0  0  0  0  0  0  0  0  0
    4.1604    5.9120    1.5426 C   0  0  2  0  0  0  0  0  0  0  0  0
    4.6574    5.1958    2.1958 H   0  0  0  0  0  0  0  0  0  0  0  0
    4.2471    7.2992    2.2187 C   0  0  2  0  0  0  0  0  0  0  0  0
    3.7249    7.2837    3.1821 H   0  0  0  0  0  0  0  0  0  0  0  0
    3.5910    8.3139    1.4361 O   0  0  0  0  0  0  0  0  0  0  0  0
    5.7272    7.6940    2.4057 C   0  0  1  0  0  0  0  0  0  0  0  0
    5.7515    8.7493    2.7073 H   0  0  0  0  0  0  0  0  0  0  0  0
    6.4033    6.9518    3.4913 N   0  0  0  0  0  0  0  0  0  0  0  0
    6.4604    7.5935    1.0395 C   0  0  2  0  0  0  0  0  0  0  0  0
    7.5370    7.7600    1.1725 H   0  0  0  0  0  0  0  0  0  0  0  0
    6.0040    8.6546    0.1711 O   0  0  0  0  0  0  0  0  0  0  0  0
    6.1900    6.2680    0.2934 C   0  0  2  0  0  0  0  0  0  0  0  0
    6.4567    6.4325   -0.7565 H   0  0  0  0  0  0  0  0  0  0  0  0
    4.7809    5.9490    0.2575 O   0  0  0  0  0  0  0  0  0  0  0  0
    7.0412    5.0868    0.7842 C   0  0  0  0  0  0  0  0  0  0  0  0
    8.4300    5.3848    0.7008 O   0  0  0  0  0  0  0  0  0  0  0  0
    0.4483    0.4294    0.8697 N   0  0  0  0  0  0  0  0  0  0  0  0
   -3.1114    3.2934   -1.0907 C   0  0  2  0  0  0  0  0  0  0  0  0
   -3.6324    3.4101   -0.1327 H   0  0  0  0  0  0  0  0  0  0  0  0
   -3.3354    1.8930   -1.5133 N   0  0  0  0  0  0  0  0  0  0  0  0
   -3.7261    4.2524   -2.1250 C   0  0  0  0  0  0  0  0  0  0  0  0
   -2.9012    4.3096   -3.4119 C   0  0  2  0  0  0  0  0  0  0  0  0
   -3.3190    5.0525   -4.0981 H   0  0  0  0  0  0  0  0  0  0  0  0
   -2.9829    3.0519   -4.0970 O   0  0  0  0  0  0  0  0  0  0  0  0
   -1.4240    4.6236   -3.1087 C   0  0  2  0  0  0  0  0  0  0  0  0
   -0.8406    4.4202   -4.0167 H   0  0  0  0  0  0  0  0  0  0  0  0
   -0.8907    3.7136   -2.1229 O   0  0  0  0  0  0  0  0  0  0  0  0
   -1.1753    6.1073   -2.7236 C   0  0  0  0  0  0  0  0  0  0  0  0
   -1.5919    7.0993   -3.7144 N   0  0  0  0  0  0  0  0  0  0  0  0
    2.8205    1.5014    0.0998 H   0  0  0  0  0  0  0  0  0  0  0  0
    2.8543    0.9351    1.7670 H   0  0  0  0  0  0  0  0  0  0  0  0
    4.7760    2.8825    0.4024 H   0  0  0  0  0  0  0  0  0  0  0  0
    4.8760    2.0717    1.8106 H   0  0  0  0  0  0  0  0  0  0  0  0
    0.9564    5.2436   -0.9570 H   0  0  0  0  0  0  0  0  0  0  0  0
    3.7695    8.0862    0.4992 H   0  0  0  0  0  0  0  0  0  0  0  0
    6.1759    5.9577    3.4696 H   0  0  0  0  0  0  0  0  0  0  0  0
    6.0300    7.2756    4.3867 H   0  0  0  0  0  0  0  0  0  0  0  0
    5.8905    9.4589    0.7075 H   0  0  0  0  0  0  0  0  0  0  0  0
    6.8033    4.7923    1.8083 H   0  0  0  0  0  0  0  0  0  0  0  0
    6.8486    4.2096    0.1573 H   0  0  0  0  0  0  0  0  0  0  0  0
    8.8357    5.1395    1.5508 H   0  0  0  0  0  0  0  0  0  0  0  0
   -0.5494    0.5289    0.6448 H   0  0  0  0  0  0  0  0  0  0  0  0
    0.8715    0.0452    0.0284 H   0  0  0  0  0  0  0  0  0  0  0  0
   -2.8403    1.7621   -2.4021 H   0  0  0  0  0  0  0  0  0  0  0  0
   -4.3228    1.7520   -1.7167 H   0  0  0  0  0  0  0  0  0  0  0  0
   -3.7826    5.2567   -1.6865 H   0  0  0  0  0  0  0  0  0  0  0  0
   -4.7576    3.9579   -2.3533 H   0  0  0  0  0  0  0  0  0  0  0  0
   -3.9160    2.9012   -4.3296 H   0  0  0  0  0  0  0  0  0  0  0  0
   -1.6571    6.3538   -1.7728 H   0  0  0  0  0  0  0  0  0  0  0  0
   -0.1025    6.2458   -2.5538 H   0  0  0  0  0  0  0  0  0  0  0  0
   -2.6047    7.1406   -3.7976 H   0  0  0  0  0  0  0  0  0  0  0  0
   -1.2190    6.8641   -4.6335 H   0  0  0  0  0  0  0  0  0  0  0  0
  1 35  1  6  0  0  0
  1 44  1  0  0  0  0
  1  3  1  0  0  0  0
  1  2  1  0  0  0  0
  4  6  1  1  0  0  0
  4  5  1  0  0  0  0
  4  3  1  0  0  0  0
  6  7  1  1  0  0  0
  6  8  1  0  0  0  0
  6 34  1  0  0  0  0
  8  9  1  0  0  0  0
  8 47  1  0  0  0  0
  8 48  1  0  0  0  0
  9 12  1  6  0  0  0
  9 11  1  0  0  0  0
  9 10  1  0  0  0  0
 11 49  1  0  0  0  0
 11 50  1  0  0  0  0
 12 13  1  0  0  0  0
 12 14  1  6  0  0  0
 12 17  1  0  0  0  0
 14  4  1  6  0  0  0
 14 16  1  0  0  0  0
 14 15  1  0  0  0  0
 16 51  1  0  0  0  0
 18 20  1  1  0  0  0
 18 31  1  0  0  0  0
 18 19  1  0  0  0  0
 18 17  1  0  0  0  0
 20 23  1  1  0  0  0
 20 22  1  0  0  0  0
 20 21  1  0  0  0  0
 22 52  1  0  0  0  0
 23 26  1  6  0  0  0
 23 25  1  0  0  0  0
 23 24  1  0  0  0  0
 25 53  1  0  0  0  0
 25 54  1  0  0  0  0
 26 27  1  0  0  0  0
 26 28  1  0  0  0  0
 26 29  1  6  0  0  0
 28 55  1  0  0  0  0
 29 31  1  0  0  0  0
 29 32  1  0  0  0  0
 29 30  1  6  0  0  0
 32 33  1  0  0  0  0
 32 56  1  0  0  0  0
 32 57  1  0  0  0  0
 33 58  1  0  0  0  0
 34 59  1  0  0  0  0
 34 60  1  0  0  0  0
 35 38  1  0  0  0  0
 35 37  1  0  0  0  0
 35 36  1  1  0  0  0
 37 61  1  0  0  0  0
 37 62  1  0  0  0  0
 38 39  1  0  0  0  0
 38 63  1  0  0  0  0
 38 64  1  0  0  0  0
 39 40  1  0  0  0  0
 39 41  1  0  0  0  0
 39 42  1  1  0  0  0
 41 65  1  0  0  0  0
 42 44  1  0  0  0  0
 42 45  1  0  0  0  0
 42 43  1  6  0  0  0
 45 46  1  0  0  0  0
 45 66  1  0  0  0  0
 45 67  1  0  0  0  0
 46 68  1  0  0  0  0
 46 69  1  0  0  0  0
M  END
$$$$
