@<TRIPOS>MOLECULE
1LC4_TOY_A_47
 69 71 0 0 0
SMALL
GASTEIGER

@<TRIPOS>ATOM
      1 C          -1.6044    3.6693   -0.8779 C.3     1  UNL1        0.1752
      2 H          -1.6124    4.6586   -0.4150 H       1  UNL1        0.0926
      3 O          -0.9914    2.7699    0.0672 O.3     1  UNL1       -0.3423
      4 C           0.4445    2.8745    0.1693 C.3     1  UNL1        0.1051
      5 H           0.8649    2.6870   -0.8270 H       1  UNL1        0.0639
      6 C           0.9551    1.7778    1.1486 C.3     1  UNL1        0.0355
      7 H           0.6165    2.0247    2.1634 H       1  UNL1        0.0485
      8 C           2.4831    1.7407    1.1188 C.3     1  UNL1       -0.0175
      9 C           3.0918    3.0695    1.5679 C.3     1  UNL1        0.0355
     10 H           2.9071    3.2104    2.6407 H       1  UNL1        0.0485
     11 N           4.5549    2.9480    1.3990 N.3     1  UNL1       -0.3250
     12 C           2.5000    4.2920    0.8094 C.3     1  UNL1        0.1051
     13 H           2.8940    4.3331   -0.2149 H       1  UNL1        0.0639
     14 C           0.9496    4.2333    0.7208 C.3     1  UNL1        0.1104
     15 H           0.5080    4.4114    1.7073 H       1  UNL1        0.0646
     16 O           0.5083    5.3261   -0.0952 O.3     1  UNL1       -0.3865
     17 O           2.7875    5.5480    1.4518 O.3     1  UNL1       -0.3413
     18 C           4.1604    5.9120    1.5426 C.3     1  UNL1        0.1874
     19 H           4.6574    5.1958    2.1958 H       1  UNL1        0.0937
     20 C           4.2471    7.2992    2.2187 C.3     1  UNL1        0.1234
     21 H           3.7249    7.2837    3.1821 H       1  UNL1        0.0660
     22 O           3.5910    8.3139    1.4361 O.3     1  UNL1       -0.3851
     23 C           5.7272    7.6940    2.4057 C.3     1  UNL1        0.0647
     24 H           5.7515    8.7493    2.7073 H       1  UNL1        0.0512
     25 N           6.4033    6.9518    3.4913 N.3     1  UNL1       -0.3229
     26 C           6.4604    7.5935    1.0395 C.3     1  UNL1        0.1012
     27 H           7.5370    7.7600    1.1725 H       1  UNL1        0.0636
     28 O           6.0040    8.6546    0.1711 O.3     1  UNL1       -0.3875
     29 C           6.1900    6.2680    0.2934 C.3     1  UNL1        0.1120
     30 H           6.4567    6.4325   -0.7565 H       1  UNL1        0.0646
     31 O           4.7809    5.9490    0.2575 O.3     1  UNL1       -0.3406
     32 C           7.0412    5.0868    0.7842 C.3     1  UNL1        0.0730
     33 O           8.4300    5.3848    0.7008 O.3     1  UNL1       -0.3924
     34 N           0.4483    0.4294    0.8697 N.3     1  UNL1       -0.3250
     35 C          -3.1114    3.2934   -1.0907 C.3     1  UNL1        0.0590
     36 H          -3.6324    3.4101   -0.1327 H       1  UNL1        0.0509
     37 N          -3.3354    1.8930   -1.5133 N.3     1  UNL1       -0.3231
     38 C          -3.7261    4.2524   -2.1250 C.3     1  UNL1       -0.0044
     39 C          -2.9012    4.3096   -3.4119 C.3     1  UNL1        0.0842
     40 H          -3.3190    5.0525   -4.0981 H       1  UNL1        0.0620
     41 O          -2.9829    3.0519   -4.0970 O.3     1  UNL1       -0.3891
     42 C          -1.4240    4.6236   -3.1087 C.3     1  UNL1        0.0998
     43 H          -0.8406    4.4202   -4.0167 H       1  UNL1        0.0635
     44 O          -0.8907    3.7136   -2.1229 O.3     1  UNL1       -0.3427
     45 C          -1.1753    6.1073   -2.7236 C.3     1  UNL1        0.0221
     46 N          -1.5919    7.0993   -3.7144 N.3     1  UNL1       -0.3276
     47 H           2.8205    1.5014    0.0998 H       1  UNL1        0.0297
     48 H           2.8543    0.9351    1.7670 H       1  UNL1        0.0297
     49 H           4.7760    2.8825    0.4024 H       1  UNL1        0.1185
     50 H           4.8760    2.0717    1.8106 H       1  UNL1        0.1185
     51 H           0.9564    5.2436   -0.9570 H       1  UNL1        0.2100
     52 H           3.7695    8.0862    0.4992 H       1  UNL1        0.2101
     53 H           6.1759    5.9577    3.4696 H       1  UNL1        0.1186
     54 H           6.0300    7.2756    4.3867 H       1  UNL1        0.1186
     55 H           5.8905    9.4589    0.7075 H       1  UNL1        0.2100
     56 H           6.8033    4.7923    1.8083 H       1  UNL1        0.0584
     57 H           6.8486    4.2096    0.1573 H       1  UNL1        0.0584
     58 H           8.8357    5.1395    1.5508 H       1  UNL1        0.2095
     59 H          -0.5494    0.5289    0.6448 H       1  UNL1        0.1185
     60 H           0.8715    0.0452    0.0284 H       1  UNL1        0.1185
     61 H          -2.8403    1.7621   -2.4021 H       1  UNL1        0.1186
     62 H          -4.3228    1.7520   -1.7167 H       1  UNL1        0.1186
     63 H          -3.7826    5.2567   -1.6865 H       1  UNL1        0.0308
     64 H          -4.7576    3.9579   -2.3533 H       1  UNL1        0.0308
     65 H          -3.9160    2.9012   -4.3296 H       1  UNL1        0.2099
     66 H          -1.6571    6.3538   -1.7728 H       1  UNL1        0.0448
     67 H          -0.1025    6.2458   -2.5538 H       1  UNL1        0.0448
     68 H          -2.6047    7.1406   -3.7976 H       1  UNL1        0.1183
     69 H          -1.2190    6.8641   -4.6335 H       1  UNL1        0.1183
@<TRIPOS>BOND
     1     1    35    1
     2     1    44    1
     3     1     3    1
     4     1     2    1
     5     4     6    1
     6     4     5    1
     7     4     3    1
     8     6     7    1
     9     6     8    1
    10     6    34    1
    11     8     9    1
    12     8    47    1
    13     8    48    1
    14     9    12    1
    15     9    11    1
    16     9    10    1
    17    11    49    1
    18    11    50    1
    19    12    13    1
    20    12    14    1
    21    12    17    1
    22    14     4    1
    23    14    16    1
    24    14    15    1
    25    16    51    1
    26    18    20    1
    27    18    31    1
    28    18    19    1
    29    18    17    1
    30    20    23    1
    31    20    22    1
    32    20    21    1
    33    22    52    1
    34    23    26    1
    35    23    25    1
    36    23    24    1
    37    25    53    1
    38    25    54    1
    39    26    27    1
    40    26    28    1
    41    26    29    1
    42    28    55    1
    43    29    31    1
    44    29    32    1
    45    29    30    1
    46    32    33    1
    47    32    56    1
    48    32    57    1
    49    33    58    1
    50    34    59    1
    51    34    60    1
    52    35    38    1
    53    35    37    1
    54    35    36    1
    55    37    61    1
    56    37    62    1
    57    38    39    1
    58    38    63    1
    59    38    64    1
    60    39    40    1
    61    39    41    1
    62    39    42    1
    63    41    65    1
    64    42    44    1
    65    42    45    1
    66    42    43    1
    67    45    46    1
    68    45    66    1
    69    45    67    1
    70    46    68    1
    71    46    69    1
