REMARK  16 active torsions:
REMARK  status: ('A' for Active; 'I' for Inactive)
REMARK    1  A    between atoms: C_1  and  O_2 
REMARK    2  A    between atoms: C_3  and  O_2 
REMARK    3  A    between atoms: C_4  and  N_23 
REMARK    4  A    between atoms: C_6  and  N_7 
REMARK    5  A    between atoms: C_8  and  O_11 
REMARK    6  A    between atoms: C_9  and  O_10 
REMARK    7  A    between atoms: C_12  and  O_11 
REMARK    8  A    between atoms: C_13  and  O_14 
REMARK    9  A    between atoms: C_15  and  N_16 
REMARK   10  A    between atoms: C_17  and  O_18 
REMARK   11  A    between atoms: C_19  and  C_21 
REMARK   12  A    between atoms: C_21  and  O_22 
REMARK   13  A    between atoms: C_24  and  N_25 
REMARK   14  A    between atoms: C_27  and  O_28 
REMARK   15  A    between atoms: C_29  and  C_31 
REMARK   16  A    between atoms: C_31  and  N_32 
ROOT
ATOM      1  C   UNL d   1       0.445   2.874   0.169  0.00  0.00     0.189 C 
ATOM      2  C   UNL d   1       0.955   1.778   1.149  0.00  0.00     0.251 C 
ATOM      3  C   UNL d   1       2.483   1.741   1.119  0.00  0.00     0.076 C 
ATOM      4  C   UNL d   1       3.092   3.070   1.568  0.00  0.00     0.251 C 
ATOM      5  C   UNL d   1       2.500   4.292   0.809  0.00  0.00     0.189 C 
ATOM      6  C   UNL d   1       0.950   4.233   0.721  0.00  0.00     0.180 C 
ENDROOT
BRANCH   5   7
ATOM      7  O   UNL d   1       2.788   5.548   1.452  0.00  0.00    -0.348 OA
BRANCH   7   8
ATOM      8  C   UNL d   1       4.160   5.912   1.543  0.00  0.00     0.291 C 
ATOM      9  C   UNL d   1       4.247   7.299   2.219  0.00  0.00     0.208 C 
ATOM     10  C   UNL d   1       5.727   7.694   2.406  0.00  0.00     0.282 C 
ATOM     11  C   UNL d   1       6.460   7.593   1.040  0.00  0.00     0.184 C 
ATOM     12  C   UNL d   1       6.190   6.268   0.293  0.00  0.00     0.179 C 
ATOM     13  O   UNL d   1       4.781   5.949   0.258  0.00  0.00    -0.349 OA
BRANCH   9  14
ATOM     14  O   UNL d   1       3.591   8.314   1.436  0.00  0.00    -0.388 OA
ATOM     15  H   UNL d   1       3.769   8.086   0.499  0.00  0.00     0.210 HD
ENDBRANCH   9  14
BRANCH  10  16
ATOM     16  N   UNL d   1       6.403   6.952   3.491  0.00  0.00     0.088 N 
ATOM     17  H   UNL d   1       6.176   5.958   3.470  0.00  0.00     0.313 HD
ATOM     18  H   UNL d   1       6.030   7.276   4.387  0.00  0.00     0.313 HD
ENDBRANCH  10  16
BRANCH  11  19
ATOM     19  O   UNL d   1       6.004   8.655   0.171  0.00  0.00    -0.391 OA
ATOM     20  H   UNL d   1       5.891   9.459   0.708  0.00  0.00     0.210 HD
ENDBRANCH  11  19
BRANCH  12  21
ATOM     21  C   UNL d   1       7.041   5.087   0.784  0.00  0.00     0.198 C 
BRANCH  21  22
ATOM     22  O   UNL d   1       8.430   5.385   0.701  0.00  0.00    -0.398 OA
ATOM     23  H   UNL d   1       8.836   5.139   1.551  0.00  0.00     0.209 HD
ENDBRANCH  21  22
ENDBRANCH  12  21
ENDBRANCH   7   8
ENDBRANCH   5   7
BRANCH   4  24
ATOM     24  N   UNL d   1       4.555   2.948   1.399  0.00  0.00     0.085 N 
ATOM     25  H   UNL d   1       4.776   2.882   0.402  0.00  0.00     0.313 HD
ATOM     26  H   UNL d   1       4.876   2.072   1.811  0.00  0.00     0.313 HD
ENDBRANCH   4  24
BRANCH   6  27
ATOM     27  O   UNL d   1       0.508   5.326  -0.095  0.00  0.00    -0.390 OA
ATOM     28  H   UNL d   1       0.956   5.244  -0.957  0.00  0.00     0.210 HD
ENDBRANCH   6  27
BRANCH   1  29
ATOM     29  O   UNL d   1      -0.991   2.770   0.067  0.00  0.00    -0.349 OA
BRANCH  29  30
ATOM     30  C   UNL d   1      -1.604   3.669  -0.878  0.00  0.00     0.293 C 
ATOM     31  C   UNL d   1      -3.111   3.293  -1.091  0.00  0.00     0.275 C 
ATOM     32  C   UNL d   1      -3.726   4.252  -2.125  0.00  0.00     0.074 C 
ATOM     33  C   UNL d   1      -2.901   4.310  -3.412  0.00  0.00     0.151 C 
ATOM     34  C   UNL d   1      -1.424   4.624  -3.109  0.00  0.00     0.181 C 
ATOM     35  O   UNL d   1      -0.891   3.714  -2.123  0.00  0.00    -0.349 OA
BRANCH  31  36
ATOM     36  N   UNL d   1      -3.335   1.893  -1.513  0.00  0.00     0.087 N 
ATOM     37  H   UNL d   1      -2.840   1.762  -2.402  0.00  0.00     0.313 HD
ATOM     38  H   UNL d   1      -4.323   1.752  -1.717  0.00  0.00     0.313 HD
ENDBRANCH  31  36
BRANCH  33  39
ATOM     39  O   UNL d   1      -2.983   3.052  -4.097  0.00  0.00    -0.393 OA
ATOM     40  H   UNL d   1      -3.916   2.901  -4.330  0.00  0.00     0.210 HD
ENDBRANCH  33  39
BRANCH  34  41
ATOM     41  C   UNL d   1      -1.175   6.107  -2.724  0.00  0.00     0.301 C 
BRANCH  41  42
ATOM     42  N   UNL d   1      -1.592   7.099  -3.714  0.00  0.00     0.080 N 
ATOM     43  H   UNL d   1      -2.605   7.141  -3.798  0.00  0.00     0.312 HD
ATOM     44  H   UNL d   1      -1.219   6.864  -4.633  0.00  0.00     0.312 HD
ENDBRANCH  41  42
ENDBRANCH  34  41
ENDBRANCH  29  30
ENDBRANCH   1  29
BRANCH   2  45
ATOM     45  N   UNL d   1       0.448   0.429   0.870  0.00  0.00     0.085 N 
ATOM     46  H   UNL d   1      -0.549   0.529   0.645  0.00  0.00     0.313 HD
ATOM     47  H   UNL d   1       0.872   0.045   0.028  0.00  0.00     0.313 HD
ENDBRANCH   2  45
TORSDOF 16
