@<TRIPOS>MOLECULE
2F4S_XXX_B_501
 48 49 0 0 0
SMALL
GASTEIGER

@<TRIPOS>ATOM
      1 O          -1.8733   -2.1367    2.2103 O.3     1  UNL1       -0.3866
      2 C          -1.4487   -1.0740    1.3329 C.3     1  UNL1        0.1101
      3 H          -0.4522   -0.8127    1.6927 H       1  UNL1        0.0646
      4 C          -2.4147    0.1106    1.5192 C.3     1  UNL1        0.0986
      5 H          -3.4439   -0.2434    1.6668 H       1  UNL1        0.0635
      6 O          -2.0457    0.8023    2.7270 O.3     1  UNL1       -0.3876
      7 C          -2.3570    1.0716    0.3205 C.3     1  UNL1        0.0351
      8 H          -1.3235    1.3842    0.1610 H       1  UNL1        0.0485
      9 N          -3.1122    2.3074    0.5671 N.3     1  UNL1       -0.3250
     10 C          -2.8490    0.3609   -0.9519 C.3     1  UNL1       -0.0175
     11 C          -2.6388   -1.1751   -0.9378 C.3     1  UNL1        0.0355
     12 H          -2.4922   -1.4872   -1.9835 H       1  UNL1        0.0485
     13 N          -3.8949   -1.8101   -0.5056 N.3     1  UNL1       -0.3250
     14 C          -1.3871   -1.5887   -0.1179 C.3     1  UNL1        0.1051
     15 H          -1.3389   -2.6849   -0.0986 H       1  UNL1        0.0639
     16 O          -0.2966   -1.1925   -0.9689 O.3     1  UNL1       -0.3422
     17 C           0.7986   -0.3995   -0.5271 C.3     1  UNL1        0.1776
     18 H           0.4794    0.3443    0.2000 H       1  UNL1        0.0927
     19 O           1.7992   -1.2270    0.0579 O.3     1  UNL1       -0.3425
     20 C           3.0499   -0.5675    0.3720 C.3     1  UNL1        0.1022
     21 H           3.8269   -1.2088   -0.0785 H       1  UNL1        0.0636
     22 C           3.2999   -0.6064    1.8997 C.3     1  UNL1        0.0222
     23 N           2.3712    0.1835    2.7096 N.3     1  UNL1       -0.3276
     24 C           3.1897    0.8469   -0.2272 C.3     1  UNL1        0.1100
     25 H           2.5755    1.5801    0.3116 H       1  UNL1        0.0646
     26 O           4.5361    1.3255   -0.1507 O.3     1  UNL1       -0.3866
     27 C           2.7643    0.7758   -1.6880 C.3     1  UNL1        0.1033
     28 H           3.4214    0.0879   -2.2307 H       1  UNL1        0.0637
     29 O           2.9532    2.0562   -2.3245 O.3     1  UNL1       -0.3874
     30 C           1.2995    0.3571   -1.8086 C.3     1  UNL1        0.0853
     31 H           0.6604    1.2424   -1.9209 H       1  UNL1        0.0535
     32 N           1.1183   -0.4156   -3.0688 N.3     1  UNL1       -0.3211
     33 H          -1.9110   -1.7364    3.1028 H       1  UNL1        0.2100
     34 H          -2.8587    1.2715    2.9941 H       1  UNL1        0.2100
     35 H          -3.0762    2.8988   -0.2635 H       1  UNL1        0.1185
     36 H          -2.6392    2.8314    1.3063 H       1  UNL1        0.1185
     37 H          -3.9038    0.5927   -1.1365 H       1  UNL1        0.0297
     38 H          -2.3075    0.7779   -1.8075 H       1  UNL1        0.0297
     39 H          -3.6969   -2.7180   -0.0779 H       1  UNL1        0.1185
     40 H          -4.4695   -2.0221   -1.3227 H       1  UNL1        0.1185
     41 H           4.3144   -0.2528    2.1089 H       1  UNL1        0.0448
     42 H           3.2281   -1.6473    2.2414 H       1  UNL1        0.0448
     43 H           1.4091    0.0528    2.4164 H       1  UNL1        0.1183
     44 H           2.6139    1.1713    2.6868 H       1  UNL1        0.1183
     45 H           4.5626    2.0855   -0.7739 H       1  UNL1        0.2100
     46 H           2.8615    1.8809   -3.2840 H       1  UNL1        0.2100
     47 H           0.3053   -0.0393   -3.5610 H       1  UNL1        0.1187
     48 H           0.7930   -1.3533   -2.7890 H       1  UNL1        0.1187
@<TRIPOS>BOND
     1     2     1    1
     2     2     3    1
     3     4     2    1
     4     4     5    1
     5     6     4    1
     6     7     4    1
     7     7     8    1
     8     9     7    1
     9    10     7    1
    10    11    10    1
    11    11    12    1
    12    13    11    1
    13    14    11    1
    14    14    15    1
    15    14     2    1
    16    16    14    1
    17    17    16    1
    18    17    18    1
    19    19    17    1
    20    20    19    1
    21    20    21    1
    22    22    20    1
    23    23    22    1
    24    24    20    1
    25    24    25    1
    26    26    24    1
    27    27    24    1
    28    27    28    1
    29    29    27    1
    30    30    27    1
    31    30    31    1
    32    30    17    1
    33    32    30    1
    34     1    33    1
    35     6    34    1
    36     9    35    1
    37     9    36    1
    38    10    37    1
    39    10    38    1
    40    13    39    1
    41    13    40    1
    42    22    41    1
    43    22    42    1
    44    23    43    1
    45    23    44    1
    46    26    45    1
    47    29    46    1
    48    32    47    1
    49    32    48    1
