2CKY_TPP_A_1084
 OpenBabel10091713573D
Coordinates from PDB:2CKY:A:1084 Model:1 without hydrogens
 45 46  0  0  0  0  0  0  0  0999 V2000
    5.1520   13.1980  -46.1470 N   0  0  0  0  0  0  0  0  0  0  0  0
    6.5250   13.0070  -46.0450 C   0  0  0  0  0  0  0  0  0  0  0  0
    7.3790   13.4970  -47.1730 C   0  0  0  0  0  0  0  0  0  0  0  0
    7.1140   12.3790  -44.9640 N   0  0  0  0  0  0  0  0  0  0  0  0
    6.3000   11.9540  -43.9620 C   0  0  0  0  0  0  0  0  0  0  0  0
    6.8310   11.3440  -42.9030 N   0  0  0  0  0  0  0  0  0  0  0  0
    4.9350   12.1920  -44.1110 C   0  0  0  0  0  0  0  0  0  0  0  0
    4.3200   12.7950  -45.1620 C   0  0  0  0  0  0  0  0  0  0  0  0
    4.0470   11.7650  -43.0990 C   0  0  0  0  0  0  0  0  0  0  0  0
    2.6740   11.5670  -43.4830 N   0  0  0  0  0  0  0  0  0  0  0  0
    2.2180   10.6370  -44.3850 C   0  0  0  0  0  3  0  0  0  0  0  0
    0.6270   10.7260  -44.6440 S   0  0  0  0  0  0  0  0  0  0  0  0
    0.4880   11.9350  -43.6440 C   0  0  0  0  0  0  0  0  0  0  0  0
    1.6550   12.3030  -43.0410 C   0  0  0  0  0  0  0  0  0  0  0  0
    1.7630   13.3860  -42.0420 C   0  0  0  0  0  0  0  0  0  0  0  0
   -0.9080   12.3850  -43.5020 C   0  0  0  0  0  0  0  0  0  0  0  0
   -1.5820   11.3930  -42.5690 C   0  0  0  0  0  0  0  0  0  0  0  0
   -2.3710   10.4840  -43.2900 O   0  0  0  0  0  0  0  0  0  0  0  0
   -3.8800   10.3030  -42.7880 P   0  0  1  0  0  0  0  0  0  0  0  0
   -4.6570   11.5770  -42.9990 O   0  0  0  0  0  0  0  0  0  0  0  0
   -4.5550    9.0860  -43.4190 O   0  0  0  0  0  0  0  0  0  0  0  0
   -3.7300   10.1020  -41.1970 O   0  0  0  0  0  0  0  0  0  0  0  0
   -4.3660    8.7870  -40.4710 P   0  0  0  0  0  0  0  0  0  0  0  0
   -3.4030    7.6060  -40.5980 O   0  0  0  0  0  0  0  0  0  0  0  0
   -5.6740    8.4170  -41.1780 O   0  0  0  0  0  0  0  0  0  0  0  0
   -4.5600    9.1190  -38.9910 O   0  0  0  0  0  0  0  0  0  0  0  0
    6.7599   13.9532  -47.9169 H   0  0  0  0  0  0  0  0  0  0  0  0
    7.9069   12.6726  -47.6049 H   0  0  0  0  0  0  0  0  0  0  0  0
    8.0805   14.2154  -46.8033 H   0  0  0  0  0  0  0  0  0  0  0  0
    7.8041   11.2032  -42.8526 H   0  0  0  0  0  0  0  0  0  0  0  0
    6.2502   11.0341  -42.1709 H   0  0  0  0  0  0  0  0  0  0  0  0
    3.2983   12.9341  -45.2044 H   0  0  0  0  0  0  0  0  0  0  0  0
    4.0632   12.5007  -42.3222 H   0  0  0  0  0  0  0  0  0  0  0  0
    4.3989   10.7976  -42.8069 H   0  0  0  0  0  0  0  0  0  0  0  0
    2.8312    9.9499  -44.8507 H   0  0  0  0  0  0  0  0  0  0  0  0
    2.7803   13.4769  -41.7231 H   0  0  0  0  0  0  0  0  0  0  0  0
    1.1442   13.1572  -41.1996 H   0  0  0  0  0  0  0  0  0  0  0  0
    1.4427   14.3083  -42.4798 H   0  0  0  0  0  0  0  0  0  0  0  0
   -1.3952   12.3878  -44.4546 H   0  0  0  0  0  0  0  0  0  0  0  0
   -0.9584   13.3808  -43.1137 H   0  0  0  0  0  0  0  0  0  0  0  0
   -2.2031   11.9264  -41.8801 H   0  0  0  0  0  0  0  0  0  0  0  0
   -0.8249   10.8479  -42.0450 H   0  0  0  0  0  0  0  0  0  0  0  0
   -4.6380    9.2221  -44.3758 H   0  0  0  0  0  0  0  0  0  0  0  0
   -5.4926    8.2170  -42.1097 H   0  0  0  0  0  0  0  0  0  0  0  0
   -3.7036    9.3448  -38.5953 H   0  0  0  0  0  0  0  0  0  0  0  0
  1  2  2  0  0  0  0
  1  8  1  0  0  0  0
  2  3  1  0  0  0  0
  2  4  1  0  0  0  0
  3 27  1  0  0  0  0
  3 28  1  0  0  0  0
  3 29  1  0  0  0  0
  4  5  2  0  0  0  0
  5  6  1  0  0  0  0
  5  7  1  0  0  0  0
  6 30  1  0  0  0  0
  6 31  1  0  0  0  0
  7  8  2  0  0  0  0
  7  9  1  0  0  0  0
  8 32  1  0  0  0  0
  9 10  1  0  0  0  0
  9 33  1  0  0  0  0
  9 34  1  0  0  0  0
 10 11  1  0  0  0  0
 10 14  1  0  0  0  0
 11 12  1  0  0  0  0
 11 35  1  0  0  0  0
 12 13  1  0  0  0  0
 13 14  2  0  0  0  0
 13 16  1  0  0  0  0
 14 15  1  0  0  0  0
 15 36  1  0  0  0  0
 15 37  1  0  0  0  0
 15 38  1  0  0  0  0
 16 17  1  0  0  0  0
 16 39  1  0  0  0  0
 16 40  1  0  0  0  0
 17 18  1  0  0  0  0
 17 41  1  0  0  0  0
 17 42  1  0  0  0  0
 18 19  1  0  0  0  0
 19 20  2  6  0  0  0
 19 21  1  0  0  0  0
 19 22  1  0  0  0  0
 21 43  1  0  0  0  0
 22 23  1  0  0  0  0
 23 24  2  0  0  0  0
 23 25  1  0  0  0  0
 23 26  1  0  0  0  0
 25 44  1  0  0  0  0
 26 45  1  0  0  0  0
M  END
$$$$
