@<TRIPOS>MOLECULE
2CKY_TPP_A_1084
 26 27 0 0 0
SMALL
GASTEIGER
****
Coordinates from PDB:2CKY:A:1084 Model:1 without hydrogens
@<TRIPOS>ATOM
      1 N           5.1520   13.1980  -46.1470 N.ar    1  UNL1       -0.2292
      2 C           6.5250   13.0070  -46.0450 C.ar    1  UNL1        0.1411
      3 C           7.3790   13.4970  -47.1730 C.3     1  UNL1        0.0737
      4 N           7.1140   12.3790  -44.9640 N.ar    1  UNL1       -0.2128
      5 C           6.3000   11.9540  -43.9620 C.ar    1  UNL1        0.1750
      6 N           6.8310   11.3440  -42.9030 N.pl3   1  UNL1       -0.1072
      7 C           4.9350   12.1920  -44.1110 C.ar    1  UNL1        0.1094
      8 C           4.3200   12.7950  -45.1620 C.ar    1  UNL1        0.1056
      9 C           4.0470   11.7650  -43.0990 C.3     1  UNL1        0.3547
     10 N           2.6740   11.5670  -43.4830 N.ar    1  UNL1       -0.1579
     11 C           2.2180   10.6370  -44.3850 C.ar    1  UNL1        0.3279
     12 S           0.6270   10.7260  -44.6440 S.2     1  UNL1       -0.0110
     13 C           0.4880   11.9350  -43.6440 C.ar    1  UNL1        0.0743
     14 C           1.6550   12.3030  -43.0410 C.ar    1  UNL1        0.2065
     15 C           1.7630   13.3860  -42.0420 C.3     1  UNL1        0.1080
     16 C          -0.9080   12.3850  -43.5020 C.3     1  UNL1        0.0713
     17 C          -1.5820   11.3930  -42.5690 C.3     1  UNL1        0.1545
     18 O          -2.3710   10.4840  -43.2900 O.3     1  UNL1       -0.3134
     19 P          -3.8800   10.3030  -42.7880 P.3     1  UNL1        0.2230
     20 O          -4.6570   11.5770  -42.9990 O.2     1  UNL1       -0.5169
     21 O          -4.5550    9.0860  -43.4190 O.3     1  UNL1       -0.4370
     22 O          -3.7300   10.1020  -41.1970 O.3     1  UNL1       -0.2261
     23 P          -4.3660    8.7870  -40.4710 P.3     1  UNL1        0.5373
     24 O          -3.4030    7.6060  -40.5980 O.2     1  UNL1       -0.2221
     25 O          -5.6740    8.4170  -41.1780 O.3     1  UNL1       -0.1143
     26 O          -4.5600    9.1190  -38.9910 O.3     1  UNL1       -0.1143
@<TRIPOS>BOND
     1     1     2   ar
     2     1     8   ar
     3     2     3    1
     4     2     4   ar
     5     4     5   ar
     6     5     6    1
     7     5     7   ar
     8     7     8   ar
     9     7     9    1
    10     9    10    1
    11    10    11   ar
    12    10    14   ar
    13    11    12   ar
    14    12    13   ar
    15    13    14   ar
    16    13    16    1
    17    14    15    1
    18    16    17    1
    19    17    18    1
    20    18    19    1
    21    19    20    2
    22    19    21    1
    23    19    22    1
    24    22    23    1
    25    23    24    2
    26    23    25    1
    27    23    26    1
