4LX6_29H_A_601
 OpenBabel10091713583D
Coordinates from PDB:4LX6:A:601 Model:1 without hydrogens
 17 18  0  0  0  0  0  0  0  0999 V2000
   30.7230   17.0600   13.8850 N   0  0  0  0  0  0  0  0  0  0  0  0
   30.1430   16.8500   15.1310 C   0  0  0  0  0  0  0  0  0  0  0  0
   29.3910   15.8840   15.2870 O   0  0  0  0  0  0  0  0  0  0  0  0
   30.4440   17.7390   16.1660 C   0  0  0  0  0  0  0  0  0  0  0  0
   29.8920   17.5610   17.4260 C   0  0  0  0  0  0  0  0  0  0  0  0
   30.2060   18.4820   18.4540 N   0  0  0  0  0  0  0  0  0  0  0  0
   31.0750   19.5530   18.1930 C   0  0  0  0  0  0  0  0  0  0  0  0
   31.6150   19.7040   16.9020 N   0  0  0  0  0  0  0  0  0  0  0  0
   31.3120   18.8150   15.9350 C   0  0  0  0  0  0  0  0  0  0  0  0
   31.8420   18.9910   14.7180 N   0  0  0  0  0  0  0  0  0  0  0  0
   31.5860   18.1570   13.7050 C   0  0  0  0  0  0  0  0  0  0  0  0
   32.1480   18.3870   12.5240 N   0  0  0  0  0  0  0  0  0  0  0  0
   30.5322   16.4485   13.1374 H   0  0  0  0  0  0  0  0  0  0  0  0
   29.2600   16.7666   17.6117 H   0  0  0  0  0  0  0  0  0  0  0  0
   31.3156   20.2230   18.9402 H   0  0  0  0  0  0  0  0  0  0  0  0
   31.9697   17.7823   11.7679 H   0  0  0  0  0  0  0  0  0  0  0  0
   32.7430   19.1622   12.4046 H   0  0  0  0  0  0  0  0  0  0  0  0
  1  2  1  0  0  0  0
  1 13  1  0  0  0  0
  2  3  2  0  0  0  0
  2  4  1  0  0  0  0
  4  5  1  0  0  0  0
  5  6  2  0  0  0  0
  5 14  1  0  0  0  0
  7  6  1  0  0  0  0
  7 15  1  0  0  0  0
  8  7  2  0  0  0  0
  9  4  2  0  0  0  0
  9  8  1  0  0  0  0
 10  9  1  0  0  0  0
 11  1  1  0  0  0  0
 11 10  2  0  0  0  0
 12 11  1  0  0  0  0
 12 16  1  0  0  0  0
 12 17  1  0  0  0  0
M  END
$$$$
