@<TRIPOS>MOLECULE
4LX6_29H_A_601
 12 13 0 0 0
SMALL
GASTEIGER
****
Coordinates from PDB:4LX6:A:601 Model:1 without hydrogens
@<TRIPOS>ATOM
      1 N          30.7230   17.0600   13.8850 N.ar    1  UNL1       -0.1722
      2 C          30.1430   16.8500   15.1310 C.ar    1  UNL1        0.2861
      3 O          29.3910   15.8840   15.2870 O.2     1  UNL1       -0.2649
      4 C          30.4440   17.7390   16.1660 C.ar    1  UNL1        0.1129
      5 C          29.8920   17.5610   17.4260 C.ar    1  UNL1        0.1085
      6 N          30.2060   18.4820   18.4540 N.ar    1  UNL1       -0.2222
      7 C          31.0750   19.5530   18.1930 C.ar    1  UNL1        0.2003
      8 N          31.6150   19.7040   16.9020 N.ar    1  UNL1       -0.2046
      9 C          31.3120   18.8150   15.9350 C.ar    1  UNL1        0.1731
     10 N          31.8420   18.9910   14.7180 N.ar    1  UNL1       -0.1917
     11 C          31.5860   18.1570   13.7050 C.ar    1  UNL1        0.2606
     12 N          32.1480   18.3870   12.5240 N.pl3   1  UNL1       -0.0859
@<TRIPOS>BOND
     1     1     2   ar
     2     2     3    2
     3     2     4   ar
     4     4     5   ar
     5     5     6   ar
     6     7     6   ar
     7     8     7   ar
     8     9     4   ar
     9     9     8   ar
    10    10     9   ar
    11    11     1   ar
    12    11    10   ar
    13    12    11    1
