REMARK  0 active torsions:
REMARK  status: ('A' for Active; 'I' for Inactive)
ROOT
ATOM      1  N   UNL d   1      30.723  17.060  13.885  0.00  0.00    -0.017 NA
ATOM      2  C   UNL d   1      30.143  16.850  15.131  0.00  0.00     0.300 A 
ATOM      3  O   UNL d   1      29.391  15.884  15.287  0.00  0.00    -0.264 OA
ATOM      4  C   UNL d   1      30.444  17.739  16.166  0.00  0.00     0.114 A 
ATOM      5  C   UNL d   1      29.892  17.561  17.426  0.00  0.00     0.109 A 
ATOM      6  N   UNL d   1      30.206  18.482  18.454  0.00  0.00    -0.222 NA
ATOM      7  C   UNL d   1      31.075  19.553  18.193  0.00  0.00     0.200 A 
ATOM      8  N   UNL d   1      31.615  19.704  16.902  0.00  0.00    -0.204 NA
ATOM      9  C   UNL d   1      31.312  18.815  15.935  0.00  0.00     0.189 A 
ATOM     10  N   UNL d   1      31.842  18.991  14.718  0.00  0.00    -0.038 NA
ATOM     11  C   UNL d   1      31.586  18.157  13.705  0.00  0.00     0.772 A 
ATOM     12  N   UNL d   1      32.148  18.387  12.524  0.00  0.00     0.062 N 
ENDROOT
TORSDOF 0
