@<TRIPOS>MOLECULE
2KXM_RIO_A_101
 65 67 0 0 0
SMALL
GASTEIGER

@<TRIPOS>ATOM
      1 O           5.2632   -0.4270    4.4222 O.3     1  UNL1       -0.3924
      2 C           5.4782   -1.8129    4.7829 C.3     1  UNL1        0.0730
      3 C           5.7639   -1.8827    6.2748 C.3     1  UNL1        0.1131
      4 H           5.5978   -0.8601    6.5885 H       1  UNL1        0.0647
      5 O           4.8827   -2.5978    7.1705 O.3     1  UNL1       -0.3405
      6 C           5.5147   -2.2157    8.4340 C.3     1  UNL1        0.1884
      7 H           5.4788   -1.1143    8.4473 H       1  UNL1        0.0938
      8 O           4.9117   -2.6509    9.6717 O.3     1  UNL1       -0.3402
      9 C           4.3014   -1.3565   10.2096 C.3     1  UNL1        0.1166
     10 H           3.5867   -1.9101    9.6013 H       1  UNL1        0.0650
     11 C           5.1180   -1.2485   11.4836 C.3     1  UNL1        0.0990
     12 H           4.7009   -1.8899   12.3333 H       1  UNL1        0.0636
     13 O           6.5038   -1.6705   11.3474 O.3     1  UNL1       -0.3876
     14 C           5.0861    0.2957   11.8050 C.3     1  UNL1        0.0351
     15 H           5.1877    0.9399   10.8977 H       1  UNL1        0.0485
     16 N           6.1924    0.8010   12.6905 N.3     1  UNL1       -0.3250
     17 C           3.7632    0.5280   12.4851 C.3     1  UNL1       -0.0175
     18 C           2.5361    0.4734   11.4856 C.3     1  UNL1        0.0355
     19 H           2.1224    0.7954   12.4473 H       1  UNL1        0.0485
     20 N           1.0203    0.2446   11.5342 N.3     1  UNL1       -0.3250
     21 C           2.8182   -0.7820   10.5487 C.3     1  UNL1        0.1055
     22 H           2.2641   -1.6608   10.9278 H       1  UNL1        0.0639
     23 O           2.2087   -0.4925    9.1766 O.3     1  UNL1       -0.3422
     24 C           2.4344    0.8383    8.6623 C.3     1  UNL1        0.1776
     25 H           1.7182    1.3978    9.2586 H       1  UNL1        0.0927
     26 O           3.7243    1.4006    9.0129 O.3     1  UNL1       -0.3425
     27 C           4.0825    2.5996    8.2992 C.3     1  UNL1        0.1022
     28 H           4.5128    2.1947    7.3769 H       1  UNL1        0.0636
     29 C           5.3099    3.2973    8.9228 C.3     1  UNL1        0.0222
     30 N           5.2465    4.7494    8.9688 N.3     1  UNL1       -0.3276
     31 C           2.7908    3.3398    7.8858 C.3     1  UNL1        0.1100
     32 H           1.9920    3.2623    8.6487 H       1  UNL1        0.0646
     33 O           2.9308    4.7182    7.6536 O.3     1  UNL1       -0.3866
     34 C           2.3871    2.5245    6.6535 C.3     1  UNL1        0.1033
     35 H           3.2573    2.4356    5.9971 H       1  UNL1        0.0637
     36 O           1.4034    3.1498    5.8507 O.3     1  UNL1       -0.3874
     37 C           1.9472    1.1273    7.1648 C.3     1  UNL1        0.0853
     38 H           0.8538    1.1860    7.1934 H       1  UNL1        0.0535
     39 N           2.2966    0.1233    6.1915 N.3     1  UNL1       -0.3211
     40 C           6.9825   -2.4899    8.2397 C.3     1  UNL1        0.1341
     41 H           7.2941   -3.4860    8.5481 H       1  UNL1        0.0671
     42 O           7.6825   -1.4975    8.9572 O.3     1  UNL1       -0.3841
     43 C           7.1558   -2.2976    6.7283 C.3     1  UNL1        0.1141
     44 H           7.4975   -3.1914    6.2014 H       1  UNL1        0.0648
     45 O           8.0680   -1.2371    6.4632 O.3     1  UNL1       -0.3864
     46 H           5.8795    0.1178    4.9488 H       1  UNL1        0.2095
     47 H           4.5774   -2.3390    4.4706 H       1  UNL1        0.0584
     48 H           6.3305   -2.1447    4.1726 H       1  UNL1        0.0584
     49 H           7.0207   -0.8920   11.0583 H       1  UNL1        0.2100
     50 H           5.9424    1.7372   13.0467 H       1  UNL1        0.1185
     51 H           6.9932    0.9935   12.1282 H       1  UNL1        0.1185
     52 H           3.6349   -0.1438   13.2722 H       1  UNL1        0.0297
     53 H           3.7791    1.5073   12.9666 H       1  UNL1        0.0297
     54 H           0.5596    1.1365   11.7505 H       1  UNL1        0.1185
     55 H           0.6778    0.0198   10.5909 H       1  UNL1        0.1185
     56 H           5.5508    2.9100    9.9149 H       1  UNL1        0.0448
     57 H           6.1674    3.0829    8.2737 H       1  UNL1        0.0448
     58 H           5.1070    5.0695    9.9283 H       1  UNL1        0.1183
     59 H           6.1375    5.1315    8.6692 H       1  UNL1        0.1183
     60 H           2.2436    5.1456    8.1965 H       1  UNL1        0.2100
     61 H           1.8762    3.4993    5.0563 H       1  UNL1        0.2100
     62 H           3.2830    0.0942    5.9472 H       1  UNL1        0.1187
     63 H           2.0068   -0.7985    6.4905 H       1  UNL1        0.1187
     64 H           8.2902   -1.9307    9.5770 H       1  UNL1        0.2101
     65 H           8.3179   -1.2915    5.5317 H       1  UNL1        0.2100
@<TRIPOS>BOND
     1     1     2    1
     2     1    46    1
     3     2     3    1
     4     2    47    1
     5     2    48    1
     6     3     4    1
     7     3     5    1
     8     3    43    1
     9     5     6    1
    10     6    40    1
    11     6     8    1
    12     6     7    1
    13     9    11    1
    14     9    10    1
    15     9     8    1
    16    11    12    1
    17    11    13    1
    18    11    14    1
    19    13    49    1
    20    14    15    1
    21    14    16    1
    22    14    17    1
    23    16    50    1
    24    16    51    1
    25    17    18    1
    26    17    52    1
    27    17    53    1
    28    18    19    1
    29    18    20    1
    30    18    21    1
    31    20    54    1
    32    20    55    1
    33    21     9    1
    34    21    23    1
    35    21    22    1
    36    23    24    1
    37    24    25    1
    38    24    26    1
    39    24    37    1
    40    26    27    1
    41    27    28    1
    42    27    29    1
    43    27    31    1
    44    29    30    1
    45    29    56    1
    46    29    57    1
    47    30    58    1
    48    30    59    1
    49    31    33    1
    50    31    32    1
    51    33    60    1
    52    34    31    1
    53    34    35    1
    54    34    36    1
    55    36    61    1
    56    37    34    1
    57    37    39    1
    58    37    38    1
    59    39    62    1
    60    39    63    1
    61    40    41    1
    62    40    42    1
    63    40    43    1
    64    42    64    1
    65    43    44    1
    66    43    45    1
    67    45    65    1
