REMARK  16 active torsions:
REMARK  status: ('A' for Active; 'I' for Inactive)
REMARK    1  A    between atoms: O_1  and  C_2 
REMARK    2  A    between atoms: C_2  and  C_3 
REMARK    3  A    between atoms: C_5  and  O_6 
REMARK    4  A    between atoms: C_7  and  O_6 
REMARK    5  A    between atoms: C_8  and  O_9 
REMARK    6  A    between atoms: C_10  and  N_11 
REMARK    7  A    between atoms: C_13  and  N_14 
REMARK    8  A    between atoms: C_15  and  O_16 
REMARK    9  A    between atoms: O_16  and  C_17 
REMARK   10  A    between atoms: C_19  and  C_20 
REMARK   11  A    between atoms: C_20  and  N_21 
REMARK   12  A    between atoms: C_22  and  O_23 
REMARK   13  A    between atoms: C_24  and  O_25 
REMARK   14  A    between atoms: C_26  and  N_27 
REMARK   15  A    between atoms: C_28  and  O_29 
REMARK   16  A    between atoms: C_30  and  O_31 
ROOT
ATOM      1  C   UNL d   1       4.301  -1.357  10.210  0.00  0.00     0.186 C 
ATOM      2  C   UNL d   1       5.118  -1.248  11.484  0.00  0.00     0.182 C 
ATOM      3  C   UNL d   1       5.086   0.296  11.805  0.00  0.00     0.251 C 
ATOM      4  C   UNL d   1       3.763   0.528  12.485  0.00  0.00     0.076 C 
ATOM      5  C   UNL d   1       2.536   0.473  11.486  0.00  0.00     0.251 C 
ATOM      6  C   UNL d   1       2.818  -0.782  10.549  0.00  0.00     0.189 C 
ENDROOT
BRANCH   6   7
ATOM      7  O   UNL d   1       2.209  -0.492   9.177  0.00  0.00    -0.349 OA
BRANCH   7   8
ATOM      8  C   UNL d   1       2.434   0.838   8.662  0.00  0.00     0.296 C 
ATOM      9  O   UNL d   1       3.724   1.401   9.013  0.00  0.00    -0.349 OA
ATOM     10  C   UNL d   1       4.082   2.600   8.299  0.00  0.00     0.183 C 
ATOM     11  C   UNL d   1       2.791   3.340   7.886  0.00  0.00     0.179 C 
ATOM     12  C   UNL d   1       2.387   2.525   6.654  0.00  0.00     0.187 C 
ATOM     13  C   UNL d   1       1.947   1.127   7.165  0.00  0.00     0.303 C 
BRANCH  10  14
ATOM     14  C   UNL d   1       5.310   3.297   8.923  0.00  0.00     0.301 C 
BRANCH  14  15
ATOM     15  N   UNL d   1       5.247   4.749   8.969  0.00  0.00     0.080 N 
ATOM     16  H   UNL d   1       5.107   5.069   9.928  0.00  0.00     0.312 HD
ATOM     17  H   UNL d   1       6.138   5.131   8.669  0.00  0.00     0.312 HD
ENDBRANCH  14  15
ENDBRANCH  10  14
BRANCH  11  18
ATOM     18  O   UNL d   1       2.931   4.718   7.654  0.00  0.00    -0.390 OA
ATOM     19  H   UNL d   1       2.244   5.146   8.197  0.00  0.00     0.210 HD
ENDBRANCH  11  18
BRANCH  12  20
ATOM     20  O   UNL d   1       1.403   3.150   5.851  0.00  0.00    -0.391 OA
ATOM     21  H   UNL d   1       1.876   3.499   5.056  0.00  0.00     0.210 HD
ENDBRANCH  12  20
BRANCH  13  22
ATOM     22  N   UNL d   1       2.297   0.123   6.191  0.00  0.00     0.090 N 
ATOM     23  H   UNL d   1       3.283   0.094   5.947  0.00  0.00     0.313 HD
ATOM     24  H   UNL d   1       2.007  -0.798   6.490  0.00  0.00     0.313 HD
ENDBRANCH  13  22
ENDBRANCH   7   8
ENDBRANCH   6   7
BRANCH   5  25
ATOM     25  N   UNL d   1       1.020   0.245  11.534  0.00  0.00     0.085 N 
ATOM     26  H   UNL d   1       0.560   1.137  11.751  0.00  0.00     0.313 HD
ATOM     27  H   UNL d   1       0.678   0.020  10.591  0.00  0.00     0.313 HD
ENDBRANCH   5  25
BRANCH   1  28
ATOM     28  O   UNL d   1       4.912  -2.651   9.672  0.00  0.00    -0.348 OA
BRANCH  28  29
ATOM     29  C   UNL d   1       5.515  -2.216   8.434  0.00  0.00     0.292 C 
ATOM     30  O   UNL d   1       4.883  -2.598   7.170  0.00  0.00    -0.348 OA
ATOM     31  C   UNL d   1       5.764  -1.883   6.275  0.00  0.00     0.179 C 
ATOM     32  C   UNL d   1       7.156  -2.298   6.728  0.00  0.00     0.182 C 
ATOM     33  C   UNL d   1       6.982  -2.490   8.240  0.00  0.00     0.204 C 
BRANCH  31  34
ATOM     34  C   UNL d   1       5.478  -1.813   4.783  0.00  0.00     0.198 C 
BRANCH  34  35
ATOM     35  O   UNL d   1       5.263  -0.427   4.422  0.00  0.00    -0.398 OA
ATOM     36  H   UNL d   1       5.880   0.118   4.949  0.00  0.00     0.209 HD
ENDBRANCH  34  35
ENDBRANCH  31  34
BRANCH  32  37
ATOM     37  O   UNL d   1       8.068  -1.237   6.463  0.00  0.00    -0.390 OA
ATOM     38  H   UNL d   1       8.318  -1.292   5.532  0.00  0.00     0.210 HD
ENDBRANCH  32  37
BRANCH  33  39
ATOM     39  O   UNL d   1       7.683  -1.498   8.957  0.00  0.00    -0.388 OA
ATOM     40  H   UNL d   1       8.290  -1.931   9.577  0.00  0.00     0.210 HD
ENDBRANCH  33  39
ENDBRANCH  28  29
ENDBRANCH   1  28
BRANCH   2  41
ATOM     41  O   UNL d   1       6.504  -1.671  11.347  0.00  0.00    -0.391 OA
ATOM     42  H   UNL d   1       7.021  -0.892  11.058  0.00  0.00     0.210 HD
ENDBRANCH   2  41
BRANCH   3  43
ATOM     43  N   UNL d   1       6.192   0.801  12.691  0.00  0.00     0.085 N 
ATOM     44  H   UNL d   1       5.942   1.737  13.047  0.00  0.00     0.313 HD
ATOM     45  H   UNL d   1       6.993   0.994  12.128  0.00  0.00     0.313 HD
ENDBRANCH   3  43
TORSDOF 16
