REMARK  15 active torsions:
REMARK  status: ('A' for Active; 'I' for Inactive)
REMARK    1  A    between atoms: C_1  and  O_2 
REMARK    2  A    between atoms: C_17  and  O_2 
REMARK    3  A    between atoms: C_3  and  N_4 
REMARK    4  A    between atoms: C_9  and  C_11 
REMARK    5  A    between atoms: C_11  and  N_35 
REMARK    6  A    between atoms: C_12  and  N_13 
REMARK    7  A    between atoms: C_15  and  O_16 
REMARK    8  A    between atoms: C_21  and  O_16 
REMARK    9  A    between atoms: C_18  and  N_19 
REMARK   10  A    between atoms: C_23  and  O_31 
REMARK   11  A    between atoms: C_24  and  C_26 
REMARK   12  A    between atoms: C_29  and  N_42 
REMARK   13  A    between atoms: C_30  and  O_31 
REMARK   14  A    between atoms: C_32  and  C_34 
REMARK   15  A    between atoms: N_41  and  C_34 
ROOT
ATOM      1  C   UNL d   1      -1.872   2.110   0.560  0.00  0.00     0.157 C 
ATOM      2  C   UNL d   1      -0.760   1.404   1.336  0.00  0.00     0.205 C 
ATOM      3  C   UNL d   1      -0.473   2.170   2.622  0.00  0.00     0.179 C 
ATOM      4  C   UNL d   1      -0.040   3.606   2.335  0.00  0.00     0.171 C 
ATOM      5  C   UNL d   1      -1.142   4.294   1.544  0.00  0.00     0.154 C 
ATOM      6  C   UNL d   1      -1.469   3.544   0.262  0.00  0.00     0.055 C 
ATOM      7  O   UNL d   1      -1.218   0.100   1.721  0.00  0.00    -0.219 OA
ENDROOT
BRANCH   3   8
ATOM      8  O   UNL d   1       0.537   1.496   3.346  0.00  0.00    -0.326 OA
BRANCH   8   9
ATOM      9  C   UNL d   1       0.219   1.405   4.724  0.00  0.00     0.270 C 
ATOM     10  O   UNL d   1       0.163   2.686   5.350  0.00  0.00    -0.326 OA
ATOM     11  C   UNL d   1       0.989   2.659   6.510  0.00  0.00     0.181 C 
ATOM     12  C   UNL d   1       2.100   1.698   6.148  0.00  0.00     0.183 C 
ATOM     13  C   UNL d   1       1.326   0.629   5.423  0.00  0.00     0.238 C 
ATOM     14  O   UNL d   1       2.169  -0.015   4.456  0.00  0.00    -0.215 OA
BRANCH  11  15
ATOM     15  C   UNL d   1       1.453   4.069   6.853  0.00  0.00     0.214 C 
ATOM     16  O   UNL d   1       2.077   4.628   5.693  0.00  0.00    -0.218 OA
ENDBRANCH  11  15
BRANCH  12  17
ATOM     17  O   UNL d   1       2.719   1.159   7.299  0.00  0.00    -0.327 OA
BRANCH  17  18
ATOM     18  C   UNL d   1       4.095   1.473   7.268  0.00  0.00     0.262 C 
ATOM     19  C   UNL d   1       4.804   0.612   8.306  0.00  0.00     0.211 C 
ATOM     20  C   UNL d   1       6.288   0.943   8.312  0.00  0.00     0.213 C 
ATOM     21  C   UNL d   1       6.487   2.439   8.490  0.00  0.00     0.213 C 
ATOM     22  O   UNL d   1       6.887   0.272   9.431  0.00  0.00    -0.218 OA
ATOM     23  O   UNL d   1       7.871   2.738   8.257  0.00  0.00    -0.218 OA
ATOM     24  C   UNL d   1       5.670   3.211   7.455  0.00  0.00     0.176 C 
ATOM     25  O   UNL d   1       4.309   2.835   7.594  0.00  0.00    -0.327 OA
BRANCH  19  26
ATOM     26  N   UNL d   1       4.603  -0.825   8.028  0.00  0.00    -0.077 NA
ATOM     27  C   UNL d   1       3.691  -1.600   8.612  0.00  0.00     0.782 C 
ATOM     28  N   UNL d   1       2.840  -1.124   9.511  0.00  0.00     0.063 N 
ATOM     29  N   UNL d   1       3.631  -2.880   8.290  0.00  0.00     0.063 N 
ENDBRANCH  19  26
BRANCH  24  30
ATOM     30  C   UNL d   1       5.754   4.725   7.603  0.00  0.00     0.177 C 
BRANCH  30  31
ATOM     31  N   UNL d   1       4.770   5.386   6.729  0.00  0.00    -0.080 NA
ATOM     32  C   UNL d   1       4.874   6.630   6.275  0.00  0.00     0.782 C 
ATOM     33  N   UNL d   1       5.930   7.382   6.568  0.00  0.00     0.063 N 
ATOM     34  N   UNL d   1       3.909   7.129   5.517  0.00  0.00     0.063 N 
ENDBRANCH  30  31
ENDBRANCH  24  30
ENDBRANCH  17  18
ENDBRANCH  12  17
ENDBRANCH   8   9
ENDBRANCH   3   8
BRANCH   4  35
ATOM     35  O   UNL d   1       1.139   3.638   1.543  0.00  0.00    -0.327 OA
BRANCH  35  36
ATOM     36  C   UNL d   1       2.311   3.476   2.322  0.00  0.00     0.262 C 
ATOM     37  C   UNL d   1       3.200   4.702   2.111  0.00  0.00     0.211 C 
ATOM     38  C   UNL d   1       4.489   4.522   2.905  0.00  0.00     0.213 C 
ATOM     39  O   UNL d   1       5.412   5.544   2.503  0.00  0.00    -0.218 OA
ATOM     40  C   UNL d   1       5.136   3.178   2.607  0.00  0.00     0.213 C 
ATOM     41  C   UNL d   1       4.131   2.041   2.766  0.00  0.00     0.176 C 
ATOM     42  O   UNL d   1       6.183   2.984   3.569  0.00  0.00    -0.218 OA
ATOM     43  O   UNL d   1       3.023   2.319   1.924  0.00  0.00    -0.327 OA
BRANCH  37  44
ATOM     44  N   UNL d   1       2.487   5.934   2.526  0.00  0.00    -0.077 NA
ATOM     45  C   UNL d   1       2.778   7.175   2.128  0.00  0.00     0.782 C 
ATOM     46  N   UNL d   1       2.049   8.193   2.563  0.00  0.00     0.063 N 
ATOM     47  N   UNL d   1       3.784   7.425   1.305  0.00  0.00     0.063 N 
ENDBRANCH  37  44
BRANCH  41  48
ATOM     48  C   UNL d   1       4.661   0.680   2.336  0.00  0.00     0.177 C 
BRANCH  48  49
ATOM     49  N   UNL d   1       5.794   0.224   3.161  0.00  0.00    -0.080 NA
ATOM     50  C   UNL d   1       5.727  -0.701   4.117  0.00  0.00     0.782 C 
ATOM     51  N   UNL d   1       4.581  -1.267   4.462  0.00  0.00     0.063 N 
ATOM     52  N   UNL d   1       6.830  -1.072   4.747  0.00  0.00     0.063 N 
ENDBRANCH  48  49
ENDBRANCH  41  48
ENDBRANCH  35  36
ENDBRANCH   4  35
BRANCH   1  53
ATOM     53  N   UNL d   1      -2.182   1.440  -0.712  0.00  0.00    -0.082 NA
ATOM     54  C   UNL d   1      -2.992   0.393  -0.853  0.00  0.00     0.782 C 
ATOM     55  N   UNL d   1      -3.532  -0.213   0.198  0.00  0.00     0.063 N 
ATOM     56  N   UNL d   1      -3.270  -0.059  -2.069  0.00  0.00     0.063 N 
ENDBRANCH   1  53
BRANCH   5  57
ATOM     57  N   UNL d   1      -0.746   5.668   1.218  0.00  0.00    -0.082 NA
ATOM     58  C   UNL d   1      -1.603   6.669   1.024  0.00  0.00     0.782 C 
ATOM     59  N   UNL d   1      -2.915   6.489   1.110  0.00  0.00     0.063 N 
ATOM     60  N   UNL d   1      -1.140   7.875   0.737  0.00  0.00     0.063 N 
ENDBRANCH   5  57
TORSDOF 15
