2JUK_G0B_A_23
 OpenBabel10281720493D
Coordinates from PDB:2JUK:A:23 Model:1 without hydrogens
124127  0  0  0  0  0  0  0  0999 V2000
    2.3110    3.4760    2.3220 C   0  0  2  0  0  0  0  0  0  0  0  0
    1.1390    3.6380    1.5430 O   0  0  0  0  0  0  0  0  0  0  0  0
    3.2000    4.7020    2.1110 C   0  0  1  0  0  0  0  0  0  0  0  0
    2.4870    5.9340    2.5260 N   0  0  0  0  0  0  0  0  0  0  0  0
    4.4890    4.5220    2.9050 C   0  0  2  0  0  0  0  0  0  0  0  0
    5.4120    5.5440    2.5030 O   0  0  0  0  0  0  0  0  0  0  0  0
    5.1360    3.1780    2.6070 C   0  0  1  0  0  0  0  0  0  0  0  0
    6.1830    2.9840    3.5690 O   0  0  0  0  0  0  0  0  0  0  0  0
    4.1310    2.0410    2.7660 C   0  0  1  0  0  0  0  0  0  0  0  0
    3.0230    2.3190    1.9240 O   0  0  0  0  0  0  0  0  0  0  0  0
    4.6610    0.6800    2.3360 C   0  0  0  0  0  0  0  0  0  0  0  0
   -1.8720    2.1100    0.5600 C   0  0  1  0  0  0  0  0  0  0  0  0
   -2.1820    1.4400   -0.7120 N   0  0  0  0  0  0  0  0  0  0  0  0
   -0.7600    1.4040    1.3360 C   0  0  1  0  0  0  0  0  0  0  0  0
   -0.4730    2.1700    2.6220 C   0  0  1  0  0  0  0  0  0  0  0  0
    0.5370    1.4960    3.3460 O   0  0  0  0  0  0  0  0  0  0  0  0
   -0.0400    3.6060    2.3350 C   0  0  2  0  0  0  0  0  0  0  0  0
   -1.1420    4.2940    1.5440 C   0  0  1  0  0  0  0  0  0  0  0  0
   -0.7460    5.6680    1.2180 N   0  0  0  0  0  0  0  0  0  0  0  0
   -1.4690    3.5440    0.2620 C   0  0  0  0  0  0  0  0  0  0  0  0
    0.2190    1.4050    4.7240 C   0  0  1  0  0  0  0  0  0  0  0  0
    1.3260    0.6290    5.4230 C   0  0  2  0  0  0  0  0  0  0  0  0
    2.1000    1.6980    6.1480 C   0  0  1  0  0  0  0  0  0  0  0  0
    0.9890    2.6590    6.5100 C   0  0  2  0  0  0  0  0  0  0  0  0
    0.1630    2.6860    5.3500 O   0  0  0  0  0  0  0  0  0  0  0  0
    1.4530    4.0690    6.8530 C   0  0  0  0  0  0  0  0  0  0  0  0
    6.4870    2.4390    8.4900 C   0  0  2  0  0  0  0  0  0  0  0  0
    6.2880    0.9430    8.3120 C   0  0  2  0  0  0  0  0  0  0  0  0
    4.8040    0.6120    8.3060 C   0  0  1  0  0  0  0  0  0  0  0  0
    4.0950    1.4730    7.2680 C   0  0  1  0  0  0  0  0  0  0  0  0
    2.7190    1.1590    7.2990 O   0  0  0  0  0  0  0  0  0  0  0  0
    5.6700    3.2110    7.4550 C   0  0  1  0  0  0  0  0  0  0  0  0
    4.3090    2.8350    7.5940 O   0  0  0  0  0  0  0  0  0  0  0  0
    5.7540    4.7250    7.6030 C   0  0  0  0  0  0  0  0  0  0  0  0
    5.7940    0.2240    3.1610 N   0  0  0  0  0  0  0  0  0  0  0  0
    2.1690   -0.0150    4.4560 O   0  0  0  0  0  0  0  0  0  0  0  0
    6.8870    0.2720    9.4310 O   0  0  0  0  0  0  0  0  0  0  0  0
    7.8710    2.7380    8.2570 O   0  0  0  0  0  0  0  0  0  0  0  0
    2.0770    4.6280    5.6930 O   0  0  0  0  0  0  0  0  0  0  0  0
   -1.2180    0.1000    1.7210 O   0  0  0  0  0  0  0  0  0  0  0  0
    4.7700    5.3860    6.7290 N   0  0  0  0  0  0  0  0  0  0  0  0
    4.6030   -0.8250    8.0280 N   0  0  0  0  0  0  0  0  0  0  0  0
    2.7780    7.1750    2.1280 C   0  0  0  0  0  0  0  0  0  0  0  0
    2.0490    8.1930    2.5630 N   0  0  0  0  0  0  0  0  0  0  0  0
    3.7840    7.4250    1.3050 N   0  3  0  0  0  0  0  0  0  0  0  0
    5.7270   -0.7010    4.1170 C   0  0  0  0  0  0  0  0  0  0  0  0
    4.5810   -1.2670    4.4620 N   0  3  0  0  0  0  0  0  0  0  0  0
    6.8300   -1.0720    4.7470 N   0  0  0  0  0  0  0  0  0  0  0  0
   -2.9920    0.3930   -0.8530 C   0  0  0  0  0  0  0  0  0  0  0  0
   -3.2700   -0.0590   -2.0690 N   0  3  0  0  0  0  0  0  0  0  0  0
   -3.5320   -0.2130    0.1980 N   0  0  0  0  0  0  0  0  0  0  0  0
   -1.6030    6.6690    1.0240 C   0  0  0  0  0  0  0  0  0  0  0  0
   -1.1400    7.8750    0.7370 N   0  3  0  0  0  0  0  0  0  0  0  0
   -2.9150    6.4890    1.1100 N   0  0  0  0  0  0  0  0  0  0  0  0
    3.6910   -1.6000    8.6120 C   0  0  0  0  0  0  0  0  0  0  0  0
    2.8400   -1.1240    9.5110 N   0  0  0  0  0  0  0  0  0  0  0  0
    3.6310   -2.8800    8.2900 N   0  3  0  0  0  0  0  0  0  0  0  0
    4.8740    6.6300    6.2750 C   0  0  0  0  0  0  0  0  0  0  0  0
    3.9090    7.1290    5.5170 N   0  3  0  0  0  0  0  0  0  0  0  0
    5.9300    7.3820    6.5680 N   0  0  0  0  0  0  0  0  0  0  0  0
    2.0380    3.3710    3.3512 H   0  0  0  0  0  0  0  0  0  0  0  0
    3.4398    4.8004    1.0729 H   0  0  0  0  0  0  0  0  0  0  0  0
    1.7328    5.8278    3.1498 H   0  0  0  0  0  0  0  0  0  0  0  0
    4.2555    4.5775    3.9477 H   0  0  0  0  0  0  0  0  0  0  0  0
    5.5963    5.4583    1.5545 H   0  0  0  0  0  0  0  0  0  0  0  0
    5.5030    3.1747    1.6019 H   0  0  0  0  0  0  0  0  0  0  0  0
    5.8066    2.9940    4.4630 H   0  0  0  0  0  0  0  0  0  0  0  0
    3.8908    1.9909    3.8075 H   0  0  0  0  0  0  0  0  0  0  0  0
    4.9831    0.7443    1.3177 H   0  0  0  0  0  0  0  0  0  0  0  0
    3.8680   -0.0283    2.4563 H   0  0  0  0  0  0  0  0  0  0  0  0
   -2.7450    2.0803    1.1780 H   0  0  0  0  0  0  0  0  0  0  0  0
   -1.7558    1.7947   -1.5255 H   0  0  0  0  0  0  0  0  0  0  0  0
    0.1136    1.3475    0.7207 H   0  0  0  0  0  0  0  0  0  0  0  0
   -1.3728    2.2133    3.1994 H   0  0  0  0  0  0  0  0  0  0  0  0
    0.1470    4.0945    3.2685 H   0  0  0  0  0  0  0  0  0  0  0  0
   -2.0188    4.3037    2.1572 H   0  0  0  0  0  0  0  0  0  0  0  0
    0.2156    5.8631    1.1373 H   0  0  0  0  0  0  0  0  0  0  0  0
   -2.2764    4.0383   -0.2367 H   0  0  0  0  0  0  0  0  0  0  0  0
   -0.5974    3.5320   -0.3586 H   0  0  0  0  0  0  0  0  0  0  0  0
   -0.7372    0.9312    4.8019 H   0  0  0  0  0  0  0  0  0  0  0  0
    0.9544   -0.1375    6.0705 H   0  0  0  0  0  0  0  0  0  0  0  0
    2.8943    2.1449    5.5874 H   0  0  0  0  0  0  0  0  0  0  0  0
    0.4961    2.3269    7.3998 H   0  0  0  0  0  0  0  0  0  0  0  0
    2.1545    4.0333    7.6602 H   0  0  0  0  0  0  0  0  0  0  0  0
    0.6197    4.6705    7.1510 H   0  0  0  0  0  0  0  0  0  0  0  0
    6.1791    2.7181    9.4760 H   0  0  0  0  0  0  0  0  0  0  0  0
    6.7307    0.6332    7.3884 H   0  0  0  0  0  0  0  0  0  0  0  0
    4.3873    0.8232    9.2686 H   0  0  0  0  0  0  0  0  0  0  0  0
    4.4728    1.2897    6.2839 H   0  0  0  0  0  0  0  0  0  0  0  0
    6.0761    2.9654    6.4960 H   0  0  0  0  0  0  0  0  0  0  0  0
    6.7374    5.0506    7.3349 H   0  0  0  0  0  0  0  0  0  0  0  0
    5.5426    4.9848    8.6192 H   0  0  0  0  0  0  0  0  0  0  0  0
    6.6717    0.6367    2.9917 H   0  0  0  0  0  0  0  0  0  0  0  0
    2.5279    0.6490    3.8467 H   0  0  0  0  0  0  0  0  0  0  0  0
    6.4660    0.5727   10.2515 H   0  0  0  0  0  0  0  0  0  0  0  0
    8.1121    2.4717    7.3559 H   0  0  0  0  0  0  0  0  0  0  0  0
    2.8301    4.0748    5.4327 H   0  0  0  0  0  0  0  0  0  0  0  0
   -2.0087    0.1859    2.2763 H   0  0  0  0  0  0  0  0  0  0  0  0
    3.9768    4.8677    6.4616 H   0  0  0  0  0  0  0  0  0  0  0  0
    5.1902   -1.2431    7.3574 H   0  0  0  0  0  0  0  0  0  0  0  0
    1.2955    8.0324    3.1759 H   0  0  0  0  0  0  0  0  0  0  0  0
    2.2611    9.1097    2.2732 H   0  0  0  0  0  0  0  0  0  0  0  0
    4.3400    6.6855    0.9683 H   0  0  0  0  0  0  0  0  0  0  0  0
    3.9763    8.3504    1.0295 H   0  0  0  0  0  0  0  0  0  0  0  0
    3.7472   -1.0072    4.0075 H   0  0  0  0  0  0  0  0  0  0  0  0
    4.5626   -1.9477    5.1731 H   0  0  0  0  0  0  0  0  0  0  0  0
    7.6940   -0.6652    4.5078 H   0  0  0  0  0  0  0  0  0  0  0  0
    6.7866   -1.7548    5.4549 H   0  0  0  0  0  0  0  0  0  0  0  0
   -2.8778    0.3791   -2.8586 H   0  0  0  0  0  0  0  0  0  0  0  0
   -3.8685   -0.8325   -2.1817 H   0  0  0  0  0  0  0  0  0  0  0  0
   -3.3358    0.1101    1.1070 H   0  0  0  0  0  0  0  0  0  0  0  0
   -4.1285   -0.9853    0.0681 H   0  0  0  0  0  0  0  0  0  0  0  0
   -0.1696    8.0265    0.6693 H   0  0  0  0  0  0  0  0  0  0  0  0
   -1.7660    8.6208    0.5912 H   0  0  0  0  0  0  0  0  0  0  0  0
   -3.2768    5.5984    1.3226 H   0  0  0  0  0  0  0  0  0  0  0  0
   -3.5265    7.2461    0.9612 H   0  0  0  0  0  0  0  0  0  0  0  0
    2.8708   -0.1727    9.7626 H   0  0  0  0  0  0  0  0  0  0  0  0
    2.1775   -1.7220    9.9267 H   0  0  0  0  0  0  0  0  0  0  0  0
    4.2551   -3.2500    7.6245 H   0  0  0  0  0  0  0  0  0  0  0  0
    2.9622   -3.4638    8.7155 H   0  0  0  0  0  0  0  0  0  0  0  0
    3.1232    6.5790    5.2950 H   0  0  0  0  0  0  0  0  0  0  0  0
    3.9776    8.0499    5.1756 H   0  0  0  0  0  0  0  0  0  0  0  0
    6.6518    7.0192    7.1307 H   0  0  0  0  0  0  0  0  0  0  0  0
    5.9904    8.3019    6.2224 H   0  0  0  0  0  0  0  0  0  0  0  0
  1  2  1  0  0  0  0
  1 61  1  1  0  0  0
  3  1  1  0  0  0  0
  3  4  1  0  0  0  0
  3  5  1  0  0  0  0
  3 62  1  6  0  0  0
  4 63  1  0  0  0  0
  5  6  1  0  0  0  0
  5 64  1  1  0  0  0
  6 65  1  0  0  0  0
  7  5  1  0  0  0  0
  7  9  1  0  0  0  0
  7  8  1  0  0  0  0
  7 66  1  6  0  0  0
  8 67  1  0  0  0  0
  9 11  1  0  0  0  0
  9 68  1  1  0  0  0
 10  1  1  0  0  0  0
 10  9  1  0  0  0  0
 11 35  1  0  0  0  0
 11 69  1  0  0  0  0
 11 70  1  0  0  0  0
 12 13  1  0  0  0  0
 12 14  1  0  0  0  0
 12 71  1  1  0  0  0
 13 72  1  0  0  0  0
 14 40  1  0  0  0  0
 14 15  1  0  0  0  0
 14 73  1  6  0  0  0
 15 16  1  0  0  0  0
 15 74  1  1  0  0  0
 17  2  1  0  0  0  0
 17 15  1  0  0  0  0
 17 75  1  1  0  0  0
 18 17  1  0  0  0  0
 18 19  1  0  0  0  0
 18 76  1  1  0  0  0
 19 77  1  0  0  0  0
 20 12  1  0  0  0  0
 20 18  1  0  0  0  0
 20 78  1  0  0  0  0
 20 79  1  0  0  0  0
 21 16  1  0  0  0  0
 21 25  1  0  0  0  0
 21 22  1  0  0  0  0
 21 80  1  1  0  0  0
 22 36  1  0  0  0  0
 22 23  1  0  0  0  0
 22 81  1  1  0  0  0
 23 24  1  0  0  0  0
 23 31  1  0  0  0  0
 23 82  1  6  0  0  0
 24 26  1  0  0  0  0
 24 83  1  1  0  0  0
 25 24  1  0  0  0  0
 26 84  1  0  0  0  0
 26 85  1  0  0  0  0
 27 38  1  0  0  0  0
 27 86  1  1  0  0  0
 28 27  1  0  0  0  0
 28 37  1  0  0  0  0
 28 87  1  6  0  0  0
 29 28  1  0  0  0  0
 29 42  1  0  0  0  0
 29 88  1  1  0  0  0
 30 29  1  0  0  0  0
 30 31  1  0  0  0  0
 30 33  1  0  0  0  0
 30 89  1  6  0  0  0
 32 27  1  0  0  0  0
 32 33  1  0  0  0  0
 32 34  1  0  0  0  0
 32 90  1  6  0  0  0
 34 91  1  0  0  0  0
 34 92  1  0  0  0  0
 35 46  1  0  0  0  0
 35 93  1  0  0  0  0
 36 94  1  0  0  0  0
 37 95  1  0  0  0  0
 38 96  1  0  0  0  0
 39 26  1  0  0  0  0
 39 97  1  0  0  0  0
 40 98  1  0  0  0  0
 41 34  1  0  0  0  0
 41 99  1  0  0  0  0
 42 55  1  0  0  0  0
 42100  1  0  0  0  0
 43  4  1  0  0  0  0
 43 44  1  0  0  0  0
 44101  1  0  0  0  0
 44102  1  0  0  0  0
 45 43  2  0  0  0  0
 45103  1  0  0  0  0
 45104  1  0  0  0  0
 46 47  2  0  0  0  0
 46 48  1  0  0  0  0
 47105  1  0  0  0  0
 47106  1  0  0  0  0
 48107  1  0  0  0  0
 48108  1  0  0  0  0
 49 13  1  0  0  0  0
 49 51  1  0  0  0  0
 50 49  2  0  0  0  0
 50109  1  0  0  0  0
 50110  1  0  0  0  0
 51111  1  0  0  0  0
 51112  1  0  0  0  0
 52 19  1  0  0  0  0
 52 54  1  0  0  0  0
 53 52  2  0  0  0  0
 53113  1  0  0  0  0
 53114  1  0  0  0  0
 54115  1  0  0  0  0
 54116  1  0  0  0  0
 55 56  1  0  0  0  0
 56117  1  0  0  0  0
 56118  1  0  0  0  0
 57 55  2  0  0  0  0
 57119  1  0  0  0  0
 57120  1  0  0  0  0
 58 41  1  0  0  0  0
 58 60  1  0  0  0  0
 59 58  2  0  0  0  0
 59121  1  0  0  0  0
 59122  1  0  0  0  0
 60123  1  0  0  0  0
 60124  1  0  0  0  0
A    1
C1
A    2
O18
A    3
C2
A    4
N8
A    5
C3
A    6
O16
A    7
C4
A    8
O17
A    9
C5
A   10
O7
A   11
C6
A   12
C19
A   13
N25
A   14
C24
A   15
C23
A   16
O34
A   17
C22
A   18
C21
A   19
N29
A   20
C20
A   21
C35
A   22
C36
A   23
C37
A   24
C38
A   25
O40
A   26
C39
A   27
C47
A   28
C46
A   29
C45
A   30
C44
A   31
O43
A   32
C48
A   33
O50
A   34
C49
A   35
N12
A   36
O41
A   37
O59
A   38
O60
A   39
O42
A   40
O33
A   41
N55
A   42
N51
A   43
C9
A   44
N10
A   45
N11
A   46
C13
A   47
N14
A   48
N15
A   49
C26
A   50
N27
A   51
N28
A   52
C30
A   53
N31
A   54
N32
A   55
C52
A   56
N53
A   57
N54
A   58
C56
A   59
N57
A   60
N58
M  CHG  6  45   1  47   1  50   1  53   1  57   1  59   1
M  END
>  <InstanceId>
2JUK_G0B_A_23

>  <ChemCompId>
G0B

>  <PdbId>
2JUK

>  <ChainId>
A

>  <ResidueNumber>
23

>  <InsertionCode>


>  <Model>
1

>  <AltIds>


>  <MissingHeavyAtoms>
0

>  <ObservedFormula>
C29 N18 O13

>  <Name>
(1S,2R,3S,4R,6S)-4,6-bis{[amino(iminio)methyl]amino}-2-{[3-O-(2,6-bis{[amino(iminio)methyl]amino}-2,6-dideoxy-beta-L-glucopyranosyl)-beta-D-arabinofuranosyl]oxy}-3-hydroxycyclohexyl 2,6-bis{[amino(iminio)methyl]amino}-2,6-dideoxy-beta-L-glucopyranoside

>  <SystematicName>
[[[(1S,2S,3R,4S,5R)-5-[[azaniumylidene(azanyl)methyl]amino]-2-[(2R,3S,4S,5R,6S)-3-[[azaniumylidene(azanyl)methyl]amino]-6-[[[azaniumylidene(azanyl)methyl]amino]methyl]-4,5-bis(oxidanyl)oxan-2-yl]oxy-3-[(2S,3S,4S,5R)-4-[(2R,3S,4S,5R,6S)-3-[[azaniumylidene(azanyl)methyl]amino]-6-[[[azaniumylidene(azanyl)methyl]amino]methyl]-4,5-bis(oxidanyl)oxan-2-yl]oxy-5-(hydroxymethyl)-3-oxidanyl-oxolan-2-yl]oxy-4-oxidanyl-cyclohexyl]amino]-azanyl-methylidene]azanium

>  <Synonyms>


>  <Type>
NON-POLYMER

>  <Formula>
C29 H64 N18 O13

>  <MolecularWeight>
872.931

>  <ModifiedDate>
2011-06-07

>  <Parent>


>  <OneLetterCode>


>  <SubcomponentList>


>  <AmbiguousFlag>
N

>  <InChI>
InChI=1S/C29H58N18O13/c30-24(31)42-2-7-13(50)15(52)10(46-28(38)39)21(55-7)58-18-6(45-27(36)37)1-5(44-26(34)35)12(49)20(18)60-23-17(54)19(9(4-48)57-23)59-22-11(47-29(40)41)16(53)14(51)8(56-22)3-43-25(32)33/h5-23,48-54H,1-4H2,(H4,30,31,42)(H4,32,33,43)(H4,34,35,44)(H4,36,37,45)(H4,38,39,46)(H4,40,41,47)/p+6/t5-,6+,7+,8+,9-,10+,11+,12+,13+,14+,15+,16+,17+,18+,19-,20-,21-,22-,23+/m1/s1

>  <InChIKey>
PKRWVRYPYSMBDP-OBAWDCFYSA-T

>  <SMILES>
C1[C@H]([C@@H]([C@H]([C@H]([C@H]1NC(=[NH2+])N)O[C@@H]2[C@H]([C@@H]([C@H]([C@@H](O2)CNC(=[NH2+])N)O)O)NC(=[NH2+])N)O[C@H]3[C@H]([C@@H]([C@H](O3)CO)O[C@@H]4[C@H]([C@@H]([C@H]([C@@H](O4)CNC(=[NH2+])N)O)O)NC(=[NH2+])N)O)O)NC(=[NH2+])N

$$$$
