@<TRIPOS>MOLECULE
2JUK_G0B_A_23
 60 63 0 0 0
SMALL
GASTEIGER
****
Coordinates from PDB:2JUK:A:23 Model:1 without hydrogens
@<TRIPOS>ATOM
      1 C           2.3110    3.4760    2.3220 C.3     1  UNL1        0.2795
      2 O           1.1390    3.6380    1.5430 O.3     1  UNL1       -0.3241
      3 C           3.2000    4.7020    2.1110 C.3     1  UNL1        0.2695
      4 N           2.4870    5.9340    2.5260 N.pl3   1  UNL1       -0.0820
      5 C           4.4890    4.5220    2.9050 C.3     1  UNL1        0.2292
      6 O           5.4120    5.5440    2.5030 O.3     1  UNL1       -0.2164
      7 C           5.1360    3.1780    2.6070 C.3     1  UNL1        0.2164
      8 O           6.1830    2.9840    3.5690 O.3     1  UNL1       -0.2175
      9 C           4.1310    2.0410    2.7660 C.3     1  UNL1        0.1939
     10 O           3.0230    2.3190    1.9240 O.3     1  UNL1       -0.3239
     11 C           4.6610    0.6800    2.3360 C.3     1  UNL1        0.2524
     12 C          -1.8720    2.1100    0.5600 C.3     1  UNL1        0.2173
     13 N          -2.1820    1.4400   -0.7120 N.pl3   1  UNL1       -0.0873
     14 C          -0.7600    1.4040    1.3360 C.3     1  UNL1        0.2210
     15 C          -0.4730    2.1700    2.6220 C.3     1  UNL1        0.1820
     16 O           0.5370    1.4960    3.3460 O.3     1  UNL1       -0.3257
     17 C          -0.0400    3.6060    2.3350 C.3     1  UNL1        0.1871
     18 C          -1.1420    4.2940    1.5440 C.3     1  UNL1        0.2141
     19 N          -0.7460    5.6680    1.2180 N.pl3   1  UNL1       -0.0874
     20 C          -1.4690    3.5440    0.2620 C.3     1  UNL1        0.0918
     21 C           0.2190    1.4050    4.7240 C.3     1  UNL1        0.2694
     22 C           1.3260    0.6290    5.4230 C.3     1  UNL1        0.2373
     23 C           2.1000    1.6980    6.1480 C.3     1  UNL1        0.1828
     24 C           0.9890    2.6590    6.5100 C.3     1  UNL1        0.1804
     25 O           0.1630    2.6860    5.3500 O.3     1  UNL1       -0.3257
     26 C           1.4530    4.0690    6.8530 C.3     1  UNL1        0.2141
     27 C           6.4870    2.4390    8.4900 C.3     1  UNL1        0.2164
     28 C           6.2880    0.9430    8.3120 C.3     1  UNL1        0.2292
     29 C           4.8040    0.6120    8.3060 C.3     1  UNL1        0.2695
     30 C           4.0950    1.4730    7.2680 C.3     1  UNL1        0.2795
     31 O           2.7190    1.1590    7.2990 O.3     1  UNL1       -0.3249
     32 C           5.6700    3.2110    7.4550 C.3     1  UNL1        0.1939
     33 O           4.3090    2.8350    7.5940 O.3     1  UNL1       -0.3239
     34 C           5.7540    4.7250    7.6030 C.3     1  UNL1        0.2524
     35 N           5.7940    0.2240    3.1610 N.pl3   1  UNL1       -0.0837
     36 O           2.1690   -0.0150    4.4560 O.3     1  UNL1       -0.2150
     37 O           6.8870    0.2720    9.4310 O.3     1  UNL1       -0.2164
     38 O           7.8710    2.7380    8.2570 O.3     1  UNL1       -0.2175
     39 O           2.0770    4.6280    5.6930 O.3     1  UNL1       -0.2176
     40 O          -1.2180    0.1000    1.7210 O.3     1  UNL1       -0.2167
     41 N           4.7700    5.3860    6.7290 N.pl3   1  UNL1       -0.0837
     42 N           4.6030   -0.8250    8.0280 N.pl3   1  UNL1       -0.0820
     43 C           2.7780    7.1750    2.1280 C.cat   1  UNL1        0.5347
     44 N           2.0490    8.1930    2.5630 N.pl3   1  UNL1        0.1354
     45 N           3.7840    7.4250    1.3050 N.pl3   1  UNL1        0.1354
     46 C           5.7270   -0.7010    4.1170 C.cat   1  UNL1        0.5347
     47 N           4.5810   -1.2670    4.4620 N.pl3   1  UNL1        0.1354
     48 N           6.8300   -1.0720    4.7470 N.pl3   1  UNL1        0.1354
     49 C          -2.9920    0.3930   -0.8530 C.cat   1  UNL1        0.5345
     50 N          -3.2700   -0.0590   -2.0690 N.pl3   1  UNL1        0.1354
     51 N          -3.5320   -0.2130    0.1980 N.pl3   1  UNL1        0.1354
     52 C          -1.6030    6.6690    1.0240 C.cat   1  UNL1        0.5345
     53 N          -1.1400    7.8750    0.7370 N.pl3   1  UNL1        0.1354
     54 N          -2.9150    6.4890    1.1100 N.pl3   1  UNL1        0.1354
     55 C           3.6910   -1.6000    8.6120 C.cat   1  UNL1        0.5347
     56 N           2.8400   -1.1240    9.5110 N.pl3   1  UNL1        0.1354
     57 N           3.6310   -2.8800    8.2900 N.pl3   1  UNL1        0.1354
     58 C           4.8740    6.6300    6.2750 C.cat   1  UNL1        0.5347
     59 N           3.9090    7.1290    5.5170 N.pl3   1  UNL1        0.1354
     60 N           5.9300    7.3820    6.5680 N.pl3   1  UNL1        0.1354
@<TRIPOS>BOND
     1     1     2    1
     2     3     1    1
     3     3     4    1
     4     3     5    1
     5     5     6    1
     6     7     5    1
     7     7     9    1
     8     7     8    1
     9     9    11    1
    10    10     1    1
    11    10     9    1
    12    11    35    1
    13    12    13    1
    14    12    14    1
    15    14    40    1
    16    14    15    1
    17    15    16    1
    18    17     2    1
    19    17    15    1
    20    18    17    1
    21    18    19    1
    22    20    12    1
    23    20    18    1
    24    21    16    1
    25    21    25    1
    26    21    22    1
    27    22    36    1
    28    22    23    1
    29    23    24    1
    30    23    31    1
    31    24    26    1
    32    25    24    1
    33    27    38    1
    34    28    27    1
    35    28    37    1
    36    29    28    1
    37    29    42    1
    38    30    29    1
    39    30    31    1
    40    30    33    1
    41    32    27    1
    42    32    33    1
    43    32    34    1
    44    35    46    1
    45    39    26    1
    46    41    34    1
    47    42    55    1
    48    43     4    1
    49    43    44    1
    50    45    43    2
    51    46    47    2
    52    46    48    1
    53    49    13    1
    54    49    51    1
    55    50    49    2
    56    52    19    1
    57    52    54    1
    58    53    52    2
    59    55    56    1
    60    57    55    2
    61    58    41    1
    62    58    60    1
    63    59    58    2
