molecule_00046
 OpenBabel11221915283D
libRbt.so/2013.1/901 2013/11/27
 36 39  0  0  0  0  0  0  0  0999 V2000
    7.9897  -22.6349    5.5101 N   0  0  0  0  0  0  0  0  0  0  0  0
    9.0333  -18.1680    6.9813 C   0  0  0  0  0  0  0  0  0  0  0  0
    8.9239  -17.1912    6.2546 O   0  0  0  0  0  0  0  0  0  0  0  0
    9.1203  -19.5873    6.4853 C   0  0  0  0  0  0  0  0  0  0  0  0
    7.3577  -25.4539    2.9997 N   0  0  0  0  0  0  0  0  0  0  0  0
    9.1017  -18.0704    8.3239 O   0  0  0  0  0  0  0  0  0  0  0  0
    7.7532  -20.2578    6.3914 C   0  0  0  0  0  0  0  0  0  0  0  0
    8.3627  -27.4477    1.2214 N   0  0  0  0  0  0  0  0  0  0  0  0
    6.5773  -28.8553    6.0243 O   0  0  0  0  0  0  0  0  0  0  0  0
    7.5970  -21.2372    5.2137 C   0  0  0  0  0  0  0  0  0  0  0  0
    7.4084  -29.4573    4.0465 N   0  0  0  0  0  0  0  0  0  0  0  0
    8.3205  -30.1371    2.0746 O   0  0  0  0  0  0  0  0  0  0  0  0
    8.1129  -23.4533    4.2749 C   0  0  0  0  0  0  0  0  0  0  0  0
    6.9781  -27.1906    4.5453 N   0  0  0  0  0  0  0  0  0  0  0  0
    6.9477  -24.4299    3.9658 C   0  0  0  0  0  0  0  0  0  0  0  0
    7.8385  -25.0813    1.7277 C   0  0  0  0  0  0  0  0  0  0  0  0
    8.3409  -26.0828    0.8699 C   0  0  0  0  0  0  0  0  0  0  0  0
    7.9081  -27.7977    2.3882 C   0  0  0  0  0  0  0  0  0  0  0  0
    7.9076  -29.2464    2.7972 C   0  0  0  0  0  0  0  0  0  0  0  0
    6.9705  -28.5034    4.9167 C   0  0  0  0  0  0  0  0  0  0  0  0
    7.3818  -26.7889    3.3784 C   0  0  0  0  0  0  0  0  0  0  0  0
    8.8480  -25.7356   -0.3892 C   0  0  0  0  0  0  0  0  0  0  0  0
    8.8699  -24.4052   -0.8387 C   0  0  0  0  0  0  0  0  0  0  0  0
    9.4495  -24.0968   -2.1907 C   0  0  0  0  0  0  0  0  0  0  0  0
    8.3546  -23.4022   -0.0056 C   0  0  0  0  0  0  0  0  0  0  0  0
    8.3222  -21.9445   -0.3823 C   0  0  0  0  0  0  0  0  0  0  0  0
    7.8456  -23.7576    1.2570 C   0  0  0  0  0  0  0  0  0  0  0  0
    9.2677  -22.7115    6.2720 C   0  0  0  0  0  0  0  0  0  0  0  0
    9.5803  -24.1080    6.7515 C   0  0  0  0  0  0  0  0  0  0  0  0
   10.3733  -24.9618    5.9748 C   0  0  0  0  0  0  0  0  0  0  0  0
   10.4305  -26.3212    6.2718 C   0  0  0  0  0  0  0  0  0  0  0  0
    9.7335  -26.8255    7.3682 C   0  0  0  0  0  0  0  0  0  0  0  0
    9.0273  -25.9651    8.2054 C   0  0  0  0  0  0  0  0  0  0  0  0
    8.9562  -24.6075    7.9033 C   0  0  0  0  0  0  0  0  0  0  0  0
    9.1011  -17.1394    8.6272 H   0  0  0  0  0  0  0  0  0  0  0  0
    7.3783  -30.4053    4.3831 H   0  0  0  0  0  0  0  0  0  0  0  0
  1 10  1  0  0  0  0
  1 13  1  0  0  0  0
  1 28  1  0  0  0  0
  2  4  1  0  0  0  0
  2  3  2  0  0  0  0
  2  6  1  0  0  0  0
  4  7  1  0  0  0  0
  5 15  1  0  0  0  0
  5 16  1  0  0  0  0
  5 21  1  0  0  0  0
  6 35  1  0  0  0  0
  7 10  1  0  0  0  0
  8 17  1  0  0  0  0
  9 20  2  0  0  0  0
 11 19  1  0  0  0  0
 11 20  1  0  0  0  0
 11 36  1  0  0  0  0
 12 19  2  0  0  0  0
 13 15  1  0  0  0  0
 14 20  1  0  0  0  0
 14 21  2  0  0  0  0
 16 17  2  0  0  0  0
 16 27  1  0  0  0  0
 17 22  1  0  0  0  0
 18  8  2  0  0  0  0
 18 19  1  0  0  0  0
 18 21  1  0  0  0  0
 22 23  2  0  0  0  0
 23 24  1  0  0  0  0
 23 25  1  0  0  0  0
 25 26  1  0  0  0  0
 25 27  2  0  0  0  0
 28 29  1  0  0  0  0
 29 30  2  0  0  0  0
 29 34  1  0  0  0  0
 30 31  1  0  0  0  0
 31 32  2  0  0  0  0
 32 33  1  0  0  0  0
 33 34  2  0  0  0  0
M  END
>  <CHROM.0>
-45.03306182,88.01023571,-166.79967340,-168.11242859,-160.28227497,-110.26300056
-141.52113007,-56.78685947,-55.07585182,-56.57234124,62.32790722,-175.25427538
-53.55557902,-61.15759091,57.37014460,64.18321474,-168.62002914,-91.62524371
-163.31117136,131.03093498

>  <CHROM.1>
-166.98161534,-103.00009829,171.80334405,-91.43659208,-3.00971372,144.77804406
-58.12374227,89.25624537,-162.09403886,92.71065525,8.37408578,-24.51044665
4.06378605,0.16517357,1.47716061,1.92057098

>  <Name>


>  <RI>
2.13258e+07

>  <Rbt.Current_Directory>
/home/fstefaniak/gitlab/AnnapuRNA-publication/case_studies/6DN2

>  <Rbt.Executable>
rbdock ($Id: //depot/dev/client3/rdock/2013.1/src/exe/rbdock.cxx#4 $)

>  <Rbt.Library>
libRbt.so (2013.1, Build901 2013/11/27)

>  <Rbt.Parameter_File>
/home/fstefaniak/progs/rDock//data/scripts/dock_solv.prm

>  <Rbt.Receptor>
system.prm

>  <SCORE>
-96.6345

>  <SCORE.INTER>
-77.0455

>  <SCORE.INTER.CONST>
1

>  <SCORE.INTER.POLAR>
-6.94927

>  <SCORE.INTER.ROT>
9

>  <SCORE.INTER.SOLV>
21.9805

>  <SCORE.INTER.VDW>
-45.1263

>  <SCORE.INTER.norm>
-2.26604

>  <SCORE.INTRA>
3.77664

>  <SCORE.INTRA.DIHEDRAL>
8.46893

>  <SCORE.INTRA.DIHEDRAL.0>
6.40188

>  <SCORE.INTRA.POLAR>
0

>  <SCORE.INTRA.POLAR.0>
0

>  <SCORE.INTRA.REPUL>
0

>  <SCORE.INTRA.REPUL.0>
0

>  <SCORE.INTRA.SOLV>
-0.814669

>  <SCORE.INTRA.SOLV.lig_0>
-26.6032

>  <SCORE.INTRA.VDW>
-0.0504894

>  <SCORE.INTRA.VDW.0>
-0.660127

>  <SCORE.INTRA.norm>
0.111078

>  <SCORE.RESTR>
0

>  <SCORE.RESTR.CAVITY>
0

>  <SCORE.RESTR.norm>
0

>  <SCORE.SYSTEM>
-23.3656

>  <SCORE.SYSTEM.CONST>
0

>  <SCORE.SYSTEM.DIHEDRAL>
34.1233

>  <SCORE.SYSTEM.POLAR>
-6.88788

>  <SCORE.SYSTEM.SOLV>
-0.701769

>  <SCORE.SYSTEM.VDW>
-3.75797

>  <SCORE.SYSTEM.norm>
-0.687223

>  <SCORE.heavy>
34

>  <SCORE.norm>
-2.84219

>  <Pose_Number>
46

>  <AnnapuRNA Score>
-429.695104876

$$$$
