@<TRIPOS>MOLECULE
6DN2_clean.pdb
3510 3789 109 0 0
NUCLEIC_ACID
AMBER ff14SB


@<TRIPOS>ATOM
      1 C5'        41.3850  -24.1230    5.4100 C.3       1   G    0.0558
      2 O5'        42.3750  -23.8620    6.4070 O.3       1   G   -0.6223
      3 C4'        41.9690  -24.8800    4.2220 C.3       1   G    0.1065
      4 O4'        43.3360  -25.2810    4.5190 O.3       1   G   -0.3548
      5 C3'        41.2310  -26.1660    3.8500 C.3       1   G    0.2022
      6 O3'        40.2250  -25.8990    2.8440 O.3       1   G   -0.5246
      7 C2'        42.3540  -27.0650    3.3250 C.3       1   G    0.0670
      8 O2'        42.6560  -26.8270    1.9620 O.3       1   G   -0.6139
      9 C1'        43.5290  -26.6500    4.2070 C.3       1   G    0.0191
     10 N1         45.0810  -31.0020    6.4340 N.am      1   G   -0.4787
     11 C2         45.1680  -30.6240    5.1100 C.2       1   G    0.7657
     12 N2         45.7260  -31.5100    4.2750 N.pl3     1   G   -0.9672
     13 N3         44.7280  -29.4590    4.6380 N.2       1   G   -0.6323
     14 C4         44.1920  -28.6800    5.6200 C.ar      1   G    0.1222
     15 C5         44.0590  -28.9730    6.9650 C.ar      1   G    0.1744
     16 C6         44.5350  -30.2160    7.4530 C.2       1   G    0.4770
     17 O6         44.4990  -30.6440    8.6120 O.2       1   G   -0.5597
     18 N7         43.4550  -27.9260    7.6420 N.ar      1   G   -0.5709
     19 C8         43.2350  -27.0330    6.7190 C.ar      1   G    0.1374
     20 N9         43.6450  -27.4210    5.4600 N.ar      1   G    0.0492
     21 H5'        40.9781  -23.1746    5.0593 H         1   G    0.0679
     22 H5''       40.5824  -24.7146    5.8504 H         1   G    0.0679
     23 H4'        41.9785  -24.2186    3.3557 H         1   G    0.1174
     24 H3'        40.7735  -26.6093    4.7345 H         1   G    0.0615
     25 H2'        42.1089  -28.1151    3.4843 H         1   G    0.0972
     26 H1'        44.4531  -26.7567    3.6389 H         1   G    0.2006
     27 H1         45.4377  -31.9129    6.6853 H         1   G    0.3424
     28 H8         42.7742  -26.0773    6.9208 H         1   G    0.1640
     29 H21        46.0582  -32.3963    4.6275 H         1   G    0.4364
     30 H22        45.8146  -31.2919    3.2928 H         1   G    0.4364
     31 HO5'       42.5026  -22.9143    6.4915 H         1   G    0.4295
     32 HO2'       41.9107  -27.0915    1.4177 H         1   G    0.4186
     33 P          38.9530  -26.8770    2.6520 P.3       2   G    1.1662
     34 C5'        39.0140  -29.2880    1.6190 C.3       2   G    0.0558
     35 O5'        39.5150  -27.9630    1.6160 O.3       2   G   -0.4989
     36 C4'        40.0850  -30.2630    1.1720 C.3       2   G    0.1065
     37 O4'        41.2930  -30.0480    1.9480 O.3       2   G   -0.3548
     38 C3'        39.7280  -31.7220    1.3830 C.3       2   G    0.2022
     39 O3'        39.0470  -32.2270    0.2460 O.3       2   G   -0.5246
     40 C2'        41.0920  -32.3810    1.5870 C.3       2   G    0.0670
     41 O2'        41.7580  -32.6810    0.3720 O.3       2   G   -0.6139
     42 C1'        41.8450  -31.2950    2.3530 C.3       2   G    0.0191
     43 N1         43.1070  -33.9670    6.5470 N.am      2   G   -0.4787
     44 C2         43.3920  -34.2380    5.2240 C.2       2   G    0.7657
     45 N2         44.1110  -35.3430    4.9840 N.pl3     2   G   -0.9672
     46 N3         43.0120  -33.4660    4.2080 N.2       2   G   -0.6323
     47 C4         42.2970  -32.3860    4.6260 C.ar      2   G    0.1222
     48 C5         41.9660  -32.0280    5.9210 C.ar      2   G    0.1744
     49 C6         42.3830  -32.8590    6.9970 C.2       2   G    0.4770
     50 O6         42.1760  -32.7050    8.2110 O.2       2   G   -0.5597
     51 N7         41.2100  -30.8630    5.9340 N.ar      2   G   -0.5709
     52 C8         41.1150  -30.5280    4.6760 C.ar      2   G    0.1374
     53 N9         41.7430  -31.4080    3.8190 N.ar      2   G    0.0492
     54 OP1        37.8780  -26.1000    1.9920 O.co2     2   G   -0.7760
     55 OP2        38.6740  -27.5610    3.9430 O.co2     2   G   -0.7760
     56 H5'        38.6920  -29.5471    2.6276 H         2   G    0.0679
     57 H5''       38.1626  -29.3527    0.9414 H         2   G    0.0679
     58 H4'        40.3028  -30.0967    0.1170 H         2   G    0.1174
     59 H3'        39.1134  -31.8372    2.2758 H         2   G    0.0615
     60 H2'        40.9932  -33.2782    2.1980 H         2   G    0.0972
     61 H1'        42.8967  -31.3256    2.0681 H         2   G    0.2006
     62 H1         43.4466  -34.6172    7.2413 H         2   G    0.3424
     63 H8         40.5936  -29.6447    4.3378 H         2   G    0.1640
     64 H21        44.3563  -35.5899    4.0359 H         2   G    0.4364
     65 H22        44.4076  -35.9290    5.7513 H         2   G    0.4364
     66 HO2'       41.2744  -33.3640   -0.0983 H         2   G    0.4186
     67 P          37.6070  -32.9040    0.4200 P.3       3   A    1.1662
     68 C5'        38.5920  -35.3600    0.5510 C.3       3   A    0.0558
     69 O5'        37.9460  -34.2600    1.2170 O.3       3   A   -0.4989
     70 C4'        39.1110  -36.3920    1.5480 C.3       3   A    0.1065
     71 O4'        40.1260  -35.7820    2.3930 O.3       3   A   -0.3548
     72 C3'        38.0760  -36.9590    2.5180 C.3       3   A    0.2022
     73 O3'        37.3760  -38.0770    1.9340 O.3       3   A   -0.5246
     74 C2'        38.9480  -37.3710    3.7070 C.3       3   A    0.0670
     75 O2'        39.5780  -38.6320    3.5270 O.3       3   A   -0.6139
     76 C1'        39.9890  -36.2430    3.7320 C.3       3   A    0.0394
     77 N1         39.5790  -34.4090    8.5700 N.ar      3   A   -0.7615
     78 C2         40.0380  -35.5830    8.0920 C.ar      3   A    0.5875
     79 N3         40.1350  -35.9920    6.8210 N.ar      3   A   -0.6997
     80 C4         39.6740  -35.0450    5.9730 C.ar      3   A    0.3053
     81 C5         39.1470  -33.8030    6.3180 C.ar      3   A    0.0515
     82 C6         39.1100  -33.4830    7.6960 C.ar      3   A    0.7009
     83 N6         38.6610  -32.3140    8.1690 N.pl3     3   A   -0.9019
     84 N7         38.7810  -33.0940    5.1890 N.ar      3   A   -0.6073
     85 C8         39.0590  -33.9130    4.2000 C.ar      3   A    0.2006
     86 N9         39.6100  -35.1070    4.5950 N.ar      3   A   -0.0251
     87 OP1        37.1030  -33.2430   -0.9310 O.co2     3   A   -0.7760
     88 OP2        36.7920  -32.0380    1.3120 O.co2     3   A   -0.7760
     89 H5'        37.8753  -35.8406   -0.1149 H         3   A    0.0679
     90 H5''       39.4273  -34.9804   -0.0374 H         3   A    0.0679
     91 H4'        39.5630  -37.2162    0.9963 H         3   A    0.1174
     92 H3'        37.3704  -36.1834    2.8158 H         3   A    0.0615
     93 H2'        38.3624  -37.3673    4.6263 H         3   A    0.0972
     94 H1'        40.9437  -36.6456    4.0705 H         3   A    0.2007
     95 H2         40.3733  -36.2902    8.8362 H         3   A    0.0473
     96 H8         38.8703  -33.6681    3.1652 H         3   A    0.1553
     97 H61        38.6662  -32.1360    9.1632 H         3   A    0.4115
     98 H62        38.3170  -31.6100    7.5317 H         3   A    0.4115
     99 HO2'       40.1898  -38.7901    4.2497 H         3   A    0.4186
    100 P          35.8360  -38.3770    2.3220 P.3       4   U    1.1662
    101 C5'        36.5360  -40.3230    3.9560 C.3       4   U    0.0558
    102 O5'        35.9520  -39.0240    3.7840 O.3       4   U   -0.4989
    103 C4'        36.5910  -40.7240    5.4240 C.3       4   U    0.1065
    104 O4'        37.5490  -39.8810    6.1400 O.3       4   U   -0.3548
    105 C3'        35.3110  -40.5260    6.2180 C.3       4   U    0.2022
    106 O3'        34.3230  -41.5210    5.9450 O.3       4   U   -0.5246
    107 C2'        35.8610  -40.5820    7.6370 C.3       4   U    0.0670
    108 O2'        36.2780  -41.8830    8.0280 O.3       4   U   -0.6139
    109 C1'        37.0700  -39.6590    7.4770 C.3       4   U    0.0674
    110 N1         36.7110  -38.1510    7.6840 N.am      4   U    0.0418
    111 C2         36.4990  -37.6630    8.9800 C.2       4   U    0.4687
    112 O2         36.6290  -38.3410    9.9900 O.2       4   U   -0.5477
    113 N3         36.1380  -36.3290    9.0460 N.am      4   U   -0.3549
    114 C4         35.9610  -35.4480    7.9830 C.2       4   U    0.5952
    115 O4         35.6350  -34.2840    8.2030 O.2       4   U   -0.5761
    116 C5         36.1600  -36.0280    6.6740 C.2       4   U   -0.3635
    117 C6         36.5210  -37.3210    6.5740 C.2       4   U   -0.1126
    118 OP1        35.3190  -39.4000    1.3810 O.co2     4   U   -0.7760
    119 OP2        35.1180  -37.0840    2.4570 O.co2     4   U   -0.7760
    120 H5'        37.5494  -40.3109    3.5547 H         4   U    0.0679
    121 H5''       35.9439  -41.0558    3.4079 H         4   U    0.0679
    122 H4'        36.9028  -41.7657    5.5000 H         4   U    0.1174
    123 H3'        34.9024  -39.5353    6.0190 H         4   U    0.0615
    124 H2'        35.1464  -40.1700    8.3496 H         4   U    0.0972
    125 H1'        37.8421  -39.9479    8.1901 H         4   U    0.1824
    126 H3         35.9856  -35.9516    9.9704 H         4   U    0.3154
    127 H5         36.0205  -35.4302    5.7854 H         4   U    0.1811
    128 H6         36.6712  -37.7378    5.5891 H         4   U    0.2188
    129 HO2'       35.5096  -42.4503    8.1244 H         4   U    0.4186
    130 P          32.7570  -41.1110    5.9530 P.3       5   C    1.1662
    131 C5'        32.4600  -42.0800    8.3800 C.3       5   C    0.0558
    132 O5'        32.4350  -40.9380    7.5150 O.3       5   C   -0.4989
    133 C4'        32.6480  -41.6770    9.8310 C.3       5   C    0.1065
    134 O4'        33.6550  -40.6440    9.9340 O.3       5   C   -0.3548
    135 C3'        31.4400  -41.0550   10.4810 C.3       5   C    0.2022
    136 O3'        30.5260  -42.0390   10.8700 O.3       5   C   -0.5246
    137 C2'        32.0690  -40.3310   11.6600 C.3       5   C    0.0670
    138 O2'        32.4060  -41.1930   12.7340 O.3       5   C   -0.6139
    139 C1'        33.3320  -39.7710   11.0050 C.3       5   C    0.0066
    140 N1         33.1770  -38.3420   10.4710 N.am      5   C   -0.0484
    141 C2         33.1980  -37.2570   11.3740 C.2       5   C    0.7538
    142 O2         33.3480  -37.4790   12.5810 O.2       5   C   -0.6252
    143 N3         33.0730  -35.9860   10.8890 N.2       5   C   -0.7584
    144 C4         32.9210  -35.7790    9.5750 C.2       5   C    0.8185
    145 N4         32.8090  -34.5170    9.1520 N.pl3     5   C   -0.9530
    146 C5         32.8880  -36.8640    8.6360 C.2       5   C   -0.5215
    147 C6         33.0280  -38.1120    9.1190 C.2       5   C    0.0053
    148 OP1        31.9840  -42.2620    5.4290 O.co2     5   C   -0.7760
    149 OP2        32.6120  -39.7800    5.3120 O.co2     5   C   -0.7760
    150 H5'        31.5176  -42.6188    8.2818 H         5   C    0.0679
    151 H5''       33.2786  -42.7353    8.0825 H         5   C    0.0679
    152 H4'        32.9618  -42.5460   10.4093 H         5   C    0.1174
    153 H3'        30.9678  -40.3426    9.8045 H         5   C    0.0615
    154 H2'        31.4234  -39.5228   12.0037 H         5   C    0.0972
    155 H1'        34.1439  -39.7895   11.7320 H         5   C    0.2029
    156 H5         32.7555  -36.6850    7.5792 H         5   C    0.1928
    157 H6         33.0236  -38.9486    8.4360 H         5   C    0.1958
    158 H41        32.8366  -33.7572    9.8169 H         5   C    0.4234
    159 H42        32.6967  -34.3225    8.1673 H         5   C    0.4234
    160 HO2'       31.6033  -41.5356   13.1339 H         5   C    0.4186
    161 P          28.9610  -41.7910   10.6440 P.3       6   U    1.1662
    162 C5'        28.8270  -41.6520   13.2640 C.3       6   U    0.0558
    163 O5'        28.5200  -41.0590   11.9960 O.3       6   U   -0.4989
    164 C4'        28.7980  -40.6220   14.3780 C.3       6   U    0.1065
    165 O4'        29.9310  -39.7120   14.2360 O.3       6   U   -0.3548
    166 C3'        27.5950  -39.6940   14.3750 C.3       6   U    0.2022
    167 O3'        26.4400  -40.3090   14.9280 O.3       6   U   -0.5246
    168 C2'        28.1250  -38.5400   15.2120 C.3       6   U    0.0670
    169 O2'        28.1960  -38.8350   16.5990 O.3       6   U   -0.6139
    170 C1'        29.5250  -38.3900   14.6110 C.3       6   U    0.0674
    171 N1         29.5560  -37.4520   13.3710 N.am      6   U    0.0418
    172 C2         29.6050  -36.0650   13.5540 C.2       6   U    0.4687
    173 O2         29.6820  -35.5260   14.6510 O.2       6   U   -0.5477
    174 N3         29.5810  -35.3260   12.3840 N.am      6   U   -0.3549
    175 C4         29.4970  -35.8150   11.0810 C.2       6   U    0.5952
    176 O4         29.4590  -35.0330   10.1370 O.2       6   U   -0.5761
    177 C5         29.4100  -37.2520   10.9740 C.2       6   U   -0.3635
    178 C6         29.4360  -37.9950   12.0900 C.2       6   U   -0.1126
    179 OP1        28.3070  -43.1150   10.5750 O.co2     6   U   -0.7760
    180 OP2        28.7890  -40.8250    9.5290 O.co2     6   U   -0.7760
    181 H5'        28.0927  -42.4282   13.4795 H         6   U    0.0679
    182 H5''       29.8191  -42.1011   13.2179 H         6   U    0.0679
    183 H4'        28.8605  -41.1293   15.3407 H         6   U    0.1174
    184 H3'        27.3877  -39.3548   13.3601 H         6   U    0.0615
    185 H2'        27.5354  -37.6393   15.0409 H         6   U    0.0972
    186 H1'        30.2049  -38.0057   15.3714 H         6   U    0.1824
    187 H3         29.6297  -34.3223   12.4852 H         6   U    0.3154
    188 H5         29.3249  -37.7234   10.0060 H         6   U    0.1811
    189 H6         29.3603  -39.0680   11.9932 H         6   U    0.2188
    190 HO2'       27.3083  -38.9244   16.9535 H         6   U    0.4186
    191 P          24.9880  -40.0190   14.2830 P.3       7   U    1.1662
    192 C5'        24.4160  -38.6130   16.4550 C.3       7   U    0.0558
    193 O5'        24.5330  -38.6620   15.0190 O.3       7   U   -0.4989
    194 C4'        24.7290  -37.2230   17.0060 C.3       7   U    0.1065
    195 O4'        26.0120  -36.7570   16.5080 O.3       7   U   -0.3548
    196 C3'        23.7630  -36.1340   16.6010 C.3       7   U    0.2022
    197 O3'        22.6430  -36.1410   17.4210 O.3       7   U   -0.5246
    198 C2'        24.6080  -34.8780   16.7710 C.3       7   U    0.0670
    199 O2'        24.7650  -34.4780   18.1240 O.3       7   U   -0.6139
    200 C1'        25.9380  -35.3630   16.2060 C.3       7   U    0.0674
    201 N1         26.0940  -35.1500   14.6830 N.am      7   U    0.0418
    202 C2         26.2460  -33.8560   14.1740 C.2       7   U    0.4687
    203 O2         26.2080  -32.8470   14.8670 O.2       7   U   -0.5477
    204 N3         26.3940  -33.7910   12.7950 N.am      7   U   -0.3549
    205 C4         26.4100  -34.8600   11.8970 C.2       7   U    0.5952
    206 O4         26.5710  -34.6530   10.6970 O.2       7   U   -0.5761
    207 C5         26.2630  -36.1610   12.5000 C.2       7   U   -0.3635
    208 C6         26.1040  -36.2520   13.8310 C.2       7   U   -0.1126
    209 OP1        24.0820  -41.1150   14.6940 O.co2     7   U   -0.7760
    210 OP2        25.1660  -39.7230   12.8380 O.co2     7   U   -0.7760
    211 H5'        23.3972  -38.8813   16.7346 H         7   U    0.0679
    212 H5''       25.1068  -39.3334   16.8932 H         7   U    0.0679
    213 H4'        24.7689  -37.2742   18.0941 H         7   U    0.1174
    214 H3'        23.4701  -36.2556   15.5582 H         7   U    0.0615
    215 H2'        24.2090  -34.0603   16.1707 H         7   U    0.0972
    216 H1'        26.7491  -34.8469   16.7196 H         7   U    0.1824
    217 H3         26.5020  -32.8687   12.3977 H         7   U    0.3154
    218 H5         26.2805  -37.0516   11.8894 H         7   U    0.1811
    219 H6         25.9770  -37.2332   14.2640 H         7   U    0.2188
    220 HO2'       23.9217  -34.1749   18.4685 H         7   U    0.4186
    221 P          21.2030  -35.9810   16.7590 P.3       8   C    1.1662
    222 C5'        20.7950  -33.5780   17.7590 C.3       8   C    0.0558
    223 O5'        21.0530  -34.3870   16.6120 O.3       8   C   -0.4989
    224 C4'        21.1970  -32.1330   17.5180 C.3       8   C    0.1065
    225 O4'        22.5140  -32.0950   16.9080 O.3       8   C   -0.3548
    226 C3'        20.3100  -31.3480   16.5540 C.3       8   C    0.2022
    227 O3'        19.1570  -30.8020   17.2270 O.3       8   C   -0.5246
    228 C2'        21.2580  -30.2500   16.1010 C.3       8   C    0.0670
    229 O2'        21.3700  -29.2040   17.0480 O.3       8   C   -0.6139
    230 C1'        22.5820  -31.0110   15.9890 C.3       8   C    0.0066
    231 N1         22.8720  -31.5390   14.5820 N.am      8   C   -0.0484
    232 C2         23.1790  -30.6310   13.5380 C.2       8   C    0.7538
    233 O2         23.2540  -29.4140   13.7810 O.2       8   C   -0.6252
    234 N3         23.4290  -31.1240   12.2880 N.2       8   C   -0.7584
    235 C4         23.3630  -32.4430   12.0550 C.2       8   C    0.8185
    236 N4         23.6160  -32.8710   10.8130 N.pl3     8   C   -0.9530
    237 C5         23.0240  -33.3760   13.0880 C.2       8   C   -0.5215
    238 C6         22.8010  -32.8890   14.3210 C.2       8   C    0.0053
    239 OP1        20.2140  -36.4860   17.7390 O.co2     8   C   -0.7760
    240 OP2        21.2490  -36.5680   15.3920 O.co2     8   C   -0.7760
    241 H5'        19.7300  -33.6165   17.9880 H         8   C    0.0679
    242 H5''       21.3576  -33.9693   18.6066 H         8   C    0.0679
    243 H4'        21.2329  -31.6101   18.4737 H         8   C    0.1174
    244 H3'        20.0079  -31.9705   15.7118 H         8   C    0.0615
    245 H2'        20.9564  -29.8583   15.1295 H         8   C    0.0972
    246 H1'        23.3936  -30.3480   16.2886 H         8   C    0.2029
    247 H5         22.9502  -34.4338   12.8833 H         8   C    0.1928
    248 H6         22.5612  -33.5708   15.1235 H         8   C    0.1958
    249 H41        23.8509  -32.2078   10.0884 H         8   C    0.4234
    250 H42        23.5721  -33.8573   10.6000 H         8   C    0.4234
    251 HO2'       20.5342  -28.7356   17.1084 H         8   C    0.4186
    252 P          17.6980  -30.8730   16.5390 P.3       9   G    1.1662
    253 C5'        18.0240  -28.4550   15.4710 C.3       9   G    0.0558
    254 O5'        17.8090  -29.8670   15.2870 O.3       9   G   -0.4989
    255 C4'        18.4200  -27.7780   14.1580 C.3       9   G    0.1065
    256 O4'        19.7520  -28.2210   13.7380 O.3       9   G   -0.3548
    257 C3'        17.5300  -28.1010   12.9720 C.3       9   G    0.2022
    258 O3'        16.4040  -27.2870   12.9530 O.3       9   G   -0.5246
    259 C2'        18.4580  -27.8150   11.8040 C.3       9   G    0.0670
    260 O2'        18.6110  -26.4250   11.5670 O.3       9   G   -0.6139
    261 C1'        19.7680  -28.4250   12.3200 C.3       9   G    0.0191
    262 N1         21.0250  -32.0900    8.8820 N.am      9   G   -0.4787
    263 C2         21.2010  -30.7210    8.7900 C.2       9   G    0.7657
    264 N2         21.7200  -30.2670    7.6370 N.pl3     9   G   -0.9672
    265 N3         20.8670  -29.8530    9.7600 N.2       9   G   -0.6323
    266 C4         20.3130  -30.4790   10.8430 C.ar      9   G    0.1222
    267 C5         20.0910  -31.8400   11.0180 C.ar      9   G    0.1744
    268 C6         20.4460  -32.7470    9.9760 C.2       9   G    0.4770
    269 O6         20.3030  -33.9800    9.9540 O.2       9   G   -0.5597
    270 N7         19.5080  -32.0920   12.2550 N.ar      9   G   -0.5709
    271 C8         19.4220  -30.9170   12.8160 C.ar      9   G    0.1374
    272 N9         19.8810  -29.8770   12.0270 N.ar      9   G    0.0492
    273 OP1        16.7210  -30.3320   17.5050 O.co2     9   G   -0.7760
    274 OP2        17.5090  -32.2400   15.9890 O.co2     9   G   -0.7760
    275 H5'        17.1047  -28.0012   15.8413 H         9   G    0.0679
    276 H5''       18.8171  -28.3062   16.2038 H         9   G    0.0679
    277 H4'        18.4356  -26.6982   14.3062 H         9   G    0.1174
    278 H3'        17.2424  -29.1523   12.9841 H         9   G    0.0615
    279 H2'        18.1189  -28.3276   10.9038 H         9   G    0.0972
    280 H1'        20.6153  -27.8962   11.8834 H         9   G    0.2006
    281 H1         21.3359  -32.6562    8.1056 H         9   G    0.3424
    282 H8         19.0268  -30.7690   13.8101 H         9   G    0.1640
    283 H21        21.9645  -30.9162    6.9030 H         9   G    0.4364
    284 H22        21.8657  -29.2764    7.5042 H         9   G    0.4364
    285 HO2'       17.7470  -26.0069   11.5476 H         9   G    0.4186
    286 P          14.9960  -27.9300   12.5740 P.3      10   G    1.1662
    287 C5'        13.7550  -25.8080   13.4340 C.3      10   G    0.0558
    288 O5'        14.0720  -26.6580   12.3470 O.3      10   G   -0.4989
    289 C4'        12.4220  -25.1130   13.2030 C.3      10   G    0.1065
    290 O4'        12.4990  -24.2500   12.0490 O.3      10   G   -0.3548
    291 C3'        11.2380  -26.0360   12.9620 C.3      10   G    0.2022
    292 O3'        10.1800  -25.6420   13.7970 O.3      10   G   -0.5246
    293 C2'        10.9110  -25.8360   11.4820 C.3      10   G    0.0670
    294 O2'         9.5280  -25.9820   11.2160 O.3      10   G   -0.6139
    295 C1'        11.3400  -24.3950   11.2910 C.3      10   G    0.0191
    296 N1         11.6360  -20.5620    7.9740 N.am     10   G   -0.4787
    297 C2         11.1820  -20.5550    9.2860 C.2      10   G    0.7657
    298 N2         10.7960  -19.3650    9.7800 N.pl3    10   G   -0.9672
    299 N3         11.1560  -21.6410   10.0700 N.2      10   G   -0.6323
    300 C4         11.6200  -22.7480    9.4180 C.ar     10   G    0.1222
    301 C5         12.0990  -22.8500    8.1220 C.ar     10   G    0.1744
    302 C6         12.1390  -21.6920    7.3080 C.2      10   G    0.4770
    303 O6         12.5020  -21.6030    6.1310 O.2      10   G   -0.5597
    304 N7         12.4780  -24.1470    7.8380 N.ar     10   G   -0.5709
    305 C8         12.2460  -24.7910    8.9500 C.ar     10   G    0.1374
    306 N9         11.6590  -24.0150    9.9250 N.ar     10   G    0.0492
    307 OP1        14.5080  -28.6770   13.7600 O.co2    10   G   -0.7760
    308 OP2        15.1410  -28.6220   11.2680 O.co2    10   G   -0.7760
    309 H5'        13.6955  -26.4014   14.3464 H        10   G    0.0679
    310 H5''       14.5377  -25.0574   13.5437 H        10   G    0.0679
    311 H4'        12.2026  -24.4974   14.0753 H        10   G    0.1174
    312 H3'        11.5142  -27.0723   13.1567 H        10   G    0.0615
    313 H2'        11.5019  -26.5058   10.8572 H        10   G    0.0972
    314 H1'        10.5672  -23.7323   11.6804 H        10   G    0.2006
    315 H1         11.6022  -19.6923    7.4616 H        10   G    0.3424
    316 H8         12.4911  -25.8332    9.0918 H        10   G    0.1640
    317 H21        10.8300  -18.5410    9.1969 H        10   G    0.4364
    318 H22        10.4721  -19.2954   10.7341 H        10   G    0.4364
    319 HO2'        9.3526  -26.8758   10.9129 H        10   G    0.4186
    320 P           9.6510  -26.6430   14.9150 P.3      11   G    1.1662
    321 C5'         9.6300  -24.7690   16.7210 C.3      11   G    0.0558
    322 O5'         8.8960  -25.6730   15.9240 O.3      11   G   -0.4989
    323 C4'         9.1970  -23.3520   16.4380 C.3      11   G    0.1065
    324 O4'         9.5440  -23.0340   15.0880 O.3      11   G   -0.3548
    325 C3'         7.7070  -23.0990   16.4890 C.3      11   G    0.2022
    326 O3'         7.2770  -22.9400   17.8450 O.3      11   G   -0.5246
    327 C2'         7.5960  -21.8110   15.6680 C.3      11   G    0.0670
    328 O2'         7.8910  -20.6440   16.4210 O.3      11   G   -0.6139
    329 C1'         8.6850  -22.0220   14.6110 C.3      11   G    0.0191
    330 N1          7.5630  -20.5870    9.8510 N.am     11   G   -0.4787
    331 C2          7.8900  -19.8060   10.9400 C.2      11   G    0.7657
    332 N2          7.9670  -18.4900   10.7200 N.pl3    11   G   -0.9672
    333 N3          8.1830  -20.2900   12.1410 N.2      11   G   -0.6323
    334 C4          8.0430  -21.6390   12.1900 C.ar     11   G    0.1222
    335 C5          7.7160  -22.5020   11.1620 C.ar     11   G    0.1744
    336 C6          7.4800  -21.9750    9.8720 C.2      11   G    0.4770
    337 O6          7.1630  -22.5860    8.8570 O.2      11   G   -0.5597
    338 N7          7.7310  -23.8170   11.5950 N.ar     11   G   -0.5709
    339 C8          8.0270  -23.7270   12.8600 C.ar     11   G    0.1374
    340 N9          8.2010  -22.4340   13.3010 N.ar     11   G    0.0492
    341 OP1        10.8350  -27.2220   15.6050 O.co2    11   G   -0.7760
    342 OP2         8.6320  -27.5390   14.2920 O.co2    11   G   -0.7760
    343 H5'         9.4567  -24.9946   17.7732 H        11   G    0.0679
    344 H5''       10.6922  -24.8729   16.4997 H        11   G    0.0679
    345 H4'         9.7078  -22.6701   17.1179 H        11   G    0.1174
    346 H3'         7.1628  -23.9106   16.0060 H        11   G    0.0615
    347 H2'         6.6139  -21.7327   15.2016 H        11   G    0.0972
    348 H1'         9.2542  -21.0988   14.5022 H        11   G    0.2006
    349 H1          7.3704  -20.1180    8.9775 H        11   G    0.3424
    350 H8          8.1269  -24.5879   13.5045 H        11   G    0.1640
    351 H21         7.7674  -18.1188    9.8021 H        11   G    0.4364
    352 H22         8.2248  -17.8666   11.4717 H        11   G    0.4364
    353 HO2'        7.2777  -20.5741   17.1562 H        11   G    0.4186
    354 P           5.9450  -23.6830   18.3810 P.3      12   G    1.1662
    355 C5'         4.6370  -21.4870   18.4740 C.3      12   G    0.0558
    356 O5'         4.7900  -22.7310   17.8980 O.3      12   G   -0.4989
    357 C4'         3.7900  -20.6410   17.5830 C.3      12   G    0.1065
    358 O4'         4.3130  -20.7230   16.2480 O.3      12   G   -0.3548
    359 C3'         2.3590  -21.1110   17.4540 C.3      12   G    0.2022
    360 O3'         1.5840  -20.6160   18.5620 O.3      12   G   -0.5246
    361 C2'         1.9520  -20.4830   16.1300 C.3      12   G    0.0670
    362 O2'         1.5240  -19.1440   16.2980 O.3      12   G   -0.6139
    363 C1'         3.2640  -20.5290   15.3230 C.3      12   G    0.0191
    364 N1          4.4280  -21.7580   10.4550 N.am     12   G   -0.4787
    365 C2          4.3750  -20.5100   11.0360 C.2      12   G    0.7657
    366 N2          4.6560  -19.4740   10.2360 N.pl3    12   G   -0.9672
    367 N3          4.0140  -20.2930   12.3030 N.2      12   G   -0.6323
    368 C4          3.7790  -21.4610   12.9770 C.ar     12   G    0.1222
    369 C5          3.8900  -22.7530   12.4930 C.ar     12   G    0.1744
    370 C6          4.2250  -22.9580   11.1350 C.2      12   G    0.4770
    371 O6          4.3120  -24.0300   10.5320 O.2      12   G   -0.5597
    372 N7          3.5600  -23.6760   13.4650 N.ar     12   G   -0.5709
    373 C8          3.3230  -22.9520   14.5280 C.ar     12   G    0.1374
    374 N9          3.3570  -21.5930   14.3030 N.ar     12   G    0.0492
    375 OP1         5.9780  -23.6810   19.8660 O.co2    12   G   -0.7760
    376 OP2         5.7710  -24.9680   17.6480 O.co2    12   G   -0.7760
    377 H5'         4.1546  -21.5911   19.4459 H        12   G    0.0679
    378 H5''        5.6140  -21.0203   18.5996 H        12   G    0.0679
    379 H4'         3.8104  -19.6065   17.9257 H        12   G    0.1174
    380 H3'         2.3101  -22.1986   17.4001 H        12   G    0.0615
    381 H2'         1.1786  -21.0769   15.6430 H        12   G    0.0972
    382 H1'         3.4054  -19.5652   14.8340 H        12   G    0.2006
    383 H1          4.6281  -21.8071    9.4662 H        12   G    0.3424
    384 H8          3.1185  -23.3817   15.4975 H        12   G    0.1640
    385 H21         4.9095  -19.6347    9.2716 H        12   G    0.4364
    386 H22         4.6145  -18.5316   10.5968 H        12   G    0.4364
    387 HO2'        0.6027  -19.1342   16.5678 H        12   G    0.4186
    388 P           0.2990  -21.4250   19.1150 P.3      13   C    1.1662
    389 C5'        -2.0930  -21.6290   18.1510 C.3      13   C    0.0558
    390 O5'        -0.8060  -21.0910   18.0260 O.3      13   C   -0.4989
    391 C4'        -3.1140  -20.5620   17.8550 C.3      13   C    0.1065
    392 O4'        -2.9960  -20.1520   16.4860 O.3      13   C   -0.3548
    393 C3'        -4.5440  -21.0000   17.9910 C.3      13   C    0.2022
    394 O3'        -4.9700  -20.7910   19.3230 O.3      13   C   -0.5246
    395 C2'        -5.2820  -20.0720   17.0220 C.3      13   C    0.0670
    396 O2'        -5.9360  -19.0210   17.6970 O.3      13   C   -0.6139
    397 C1'        -4.1780  -19.4990   16.1360 C.3      13   C    0.0066
    398 N1         -4.4380  -19.5980   14.6180 N.am     13   C   -0.0484
    399 C2         -5.3070  -18.6640   14.0040 C.2      13   C    0.7538
    400 O2         -5.8740  -17.8190   14.6980 O.2      13   C   -0.6252
    401 N3         -5.5250  -18.7330   12.6600 N.2      13   C   -0.7584
    402 C4         -4.9180  -19.6650   11.9270 C.2      13   C    0.8185
    403 N4         -5.1830  -19.6800   10.6130 N.pl3    13   C   -0.9530
    404 C5         -4.0060  -20.6210   12.5150 C.2      13   C   -0.5215
    405 C6         -3.7990  -20.5510   13.8500 C.2      13   C    0.0053
    406 OP1        -0.1000  -20.8110   20.4090 O.co2    13   C   -0.7760
    407 OP2         0.5500  -22.8900   19.0420 O.co2    13   C   -0.7760
    408 H5'        -2.2359  -21.9966   19.1672 H        13   C    0.0679
    409 H5''       -2.2128  -22.4521   17.4466 H        13   C    0.0679
    410 H4'        -2.9369  -19.7044   18.5041 H        13   C    0.1174
    411 H3'        -4.6632  -22.0439   17.7009 H        13   C    0.0615
    412 H2'        -5.9941  -20.6387   16.4221 H        13   C    0.0972
    413 H1'        -4.0631  -18.4444   16.3865 H        13   C    0.2029
    414 H5         -3.5080  -21.3642   11.9100 H        13   C    0.1928
    415 H6         -3.1245  -21.2503   14.3216 H        13   C    0.1958
    416 H41        -5.8212  -19.0037   10.2188 H        13   C    0.4234
    417 H42        -4.7444  -20.3676   10.0172 H        13   C    0.4234
    418 HO2'       -6.6301  -19.3808   18.2541 H        13   C    0.4186
    419 P          -6.1330  -21.7020   19.9670 P.3      14   A    1.1662
    420 C5'        -5.3350  -21.1260   22.3880 C.3      14   A    0.0558
    421 O5'        -6.3350  -21.0110   21.4040 O.3      14   A   -0.4989
    422 C4'        -5.2820  -19.9090   23.2900 C.3      14   A    0.1065
    423 O4'        -4.6270  -18.8150   22.6180 O.3      14   A   -0.3548
    424 C3'        -6.5970  -19.3100   23.6820 C.3      14   A    0.2022
    425 O3'        -7.2540  -20.0750   24.6300 O.3      14   A   -0.5246
    426 C2'        -6.1560  -17.9640   24.2240 C.3      14   A    0.0670
    427 O2'        -5.6760  -18.0370   25.5520 O.3      14   A   -0.6139
    428 C1'        -5.0410  -17.5900   23.2260 C.3      14   A    0.0394
    429 N1         -6.8150  -12.8700   21.9950 N.ar     14   A   -0.7615
    430 C2         -6.2680  -13.3500   23.1220 C.ar     14   A    0.5875
    431 N3         -5.7880  -14.5830   23.3700 N.ar     14   A   -0.6997
    432 C4         -5.9240  -15.3850   22.2970 C.ar     14   A    0.3053
    433 C5         -6.4550  -15.0340   21.0690 C.ar     14   A    0.0515
    434 C6         -6.9330  -13.7010   20.9290 C.ar     14   A    0.7009
    435 N6         -7.4890  -13.2350   19.8070 N.pl3    14   A   -0.9019
    436 N7         -6.3920  -16.1000   20.1890 N.ar     14   A   -0.6073
    437 C8         -5.8670  -17.0670   20.8990 C.ar     14   A    0.2006
    438 N9         -5.5280  -16.7030   22.1690 N.ar     14   A   -0.0251
    439 OP1        -5.5750  -23.0750   20.1400 O.co2    14   A   -0.7760
    440 OP2        -7.4050  -21.5070   19.1910 O.co2    14   A   -0.7760
    441 H5'        -5.5405  -22.0063   22.9970 H        14   A    0.0679
    442 H5''       -4.3682  -21.2492   21.8998 H        14   A    0.0679
    443 H4'        -4.7223  -20.1587   24.1914 H        14   A    0.1174
    444 H3'        -7.2273  -19.1749   22.8030 H        14   A    0.0615
    445 H2'        -6.9741  -17.2467   24.1592 H        14   A    0.0972
    446 H1'        -4.2047  -17.1279   23.7506 H        14   A    0.2007
    447 H2         -6.2039  -12.6513   23.9430 H        14   A    0.0473
    448 H8         -5.7158  -18.0643   20.5131 H        14   A    0.1553
    449 H61        -6.9897  -13.6860   19.0538 H        14   A    0.4115
    450 H62        -8.4320  -13.5960   19.7827 H        14   A    0.4115
    451 HO2'       -6.3970  -18.2713   26.1409 H        14   A    0.4186
    452 P          -8.7820  -20.4520   24.3540 P.3      15   G    1.1662
    453 C5'        -9.6370  -18.2440   25.5510 C.3      15   G    0.0558
    454 O5'        -9.5320  -19.0260   24.3520 O.3      15   G   -0.4989
    455 C4'       -10.0820  -16.8110   25.2630 C.3      15   G    0.1065
    456 O4'        -9.0750  -16.1100   24.4650 O.3      15   G   -0.3548
    457 C3'       -11.3480  -16.6770   24.4530 C.3      15   G    0.2022
    458 O3'       -12.4910  -16.8290   25.2740 O.3      15   G   -0.5246
    459 C2'       -11.1870  -15.2680   23.8770 C.3      15   G    0.0670
    460 O2'       -11.3890  -14.2500   24.8350 O.3      15   G   -0.6139
    461 C1'        -9.7120  -15.3080   23.4720 C.3      15   G    0.0191
    462 N1        -10.4520  -15.0020   18.4170 N.am     15   G   -0.4787
    463 C2        -10.6970  -14.0620   19.3960 C.2      15   G    0.7657
    464 N2        -11.2760  -12.9340   18.9940 N.pl3    15   G   -0.9672
    465 N3        -10.4560  -14.2490   20.6890 N.2      15   G   -0.6323
    466 C4         -9.9050  -15.4590   20.9340 C.ar     15   G    0.1222
    467 C5         -9.6160  -16.4690   20.0290 C.ar     15   G    0.1744
    468 C6         -9.8620  -16.2520   18.6420 C.2      15   G    0.4770
    469 O6         -9.6960  -17.0470   17.6960 O.2      15   G   -0.5597
    470 N7         -9.0740  -17.5740   20.6770 N.ar     15   G   -0.5709
    471 C8         -9.0200  -17.2080   21.9250 C.ar     15   G    0.1374
    472 N9         -9.4940  -15.9320   22.1600 N.ar     15   G    0.0492
    473 OP1        -9.2650  -21.2790   25.4920 O.co2    15   G   -0.7760
    474 OP2        -8.8770  -20.9850   22.9750 O.co2    15   G   -0.7760
    475 H5'        -8.6635  -18.2183   26.0405 H        15   G    0.0679
    476 H5''      -10.3590  -18.7131   26.2195 H        15   G    0.0679
    477 H4'       -10.2112  -16.2850   26.2089 H        15   G    0.1174
    478 H3'       -11.3608  -17.4133   23.6494 H        15   G    0.0615
    479 H2'       -11.8292  -15.1230   23.0083 H        15   G    0.0972
    480 H1'        -9.2947  -14.3011   23.4808 H        15   G    0.2006
    481 H1        -10.7171  -14.7724   17.4698 H        15   G    0.3424
    482 H8         -8.6380  -17.8461   22.7082 H        15   G    0.1640
    483 H21       -11.4863  -12.7948   18.0160 H        15   G    0.4364
    484 H22       -11.5054  -12.2166   19.6669 H        15   G    0.4364
    485 HO2'      -12.3149  -14.2268   25.0875 H        15   G    0.4186
    486 P         -13.6630  -17.8370   24.8210 P.3      16   G    1.1662
    487 C5'       -14.9570  -15.9140   23.5800 C.3      16   G    0.0558
    488 O5'       -14.2120  -17.1450   23.4650 O.3      16   G   -0.4989
    489 C4'       -15.0450  -15.0840   22.2900 C.3      16   G    0.1065
    490 O4'       -13.7800  -14.9470   21.5990 O.3      16   G   -0.3548
    491 C3'       -15.9670  -15.5750   21.2070 C.3      16   G    0.2022
    492 O3'       -17.3050  -15.4590   21.5810 O.3      16   G   -0.5246
    493 C2'       -15.5960  -14.5990   20.1050 C.3      16   G    0.0670
    494 O2'       -16.1160  -13.3000   20.3030 O.3      16   G   -0.6139
    495 C1'       -14.0750  -14.5920   20.2380 C.3      16   G    0.0191
    496 N1        -13.2910  -15.8580   15.4030 N.am     16   G   -0.4787
    497 C2        -13.7930  -14.6960   15.9360 C.2      16   G    0.7657
    498 N2        -14.1740  -13.7610   15.0670 N.pl3    16   G   -0.9672
    499 N3        -13.9290  -14.4710   17.2300 N.2      16   G   -0.6323
    500 C4        -13.5340  -15.5250   17.9670 C.ar     16   G    0.1222
    501 C5        -13.0220  -16.7270   17.5350 C.ar     16   G    0.1744
    502 C6        -12.8550  -16.9460   16.1480 C.2      16   G    0.4770
    503 O6        -12.4410  -17.9650   15.5780 O.2      16   G   -0.5597
    504 N7        -12.7040  -17.5420   18.6090 N.ar     16   G   -0.5709
    505 C8        -13.0310  -16.8270   19.6500 C.ar     16   G    0.1374
    506 N9        -13.4780  -15.5640   19.3330 N.ar     16   G    0.0492
    507 OP1       -14.7220  -17.7960   25.8590 O.co2    16   G   -0.7760
    508 OP2       -13.0410  -19.1360   24.4770 O.co2    16   G   -0.7760
    509 H5'       -15.9716  -16.1611   23.8925 H        16   G    0.0679
    510 H5''      -14.4958  -15.3015   24.3547 H        16   G    0.0679
    511 H4'       -15.3740  -14.0829   22.5687 H        16   G    0.1174
    512 H3'       -15.7267  -16.5991   20.9215 H        16   G    0.0615
    513 H2'       -15.8945  -14.9877   19.1314 H        16   G    0.0972
    514 H1'       -13.6878  -13.5963   20.0216 H        16   G    0.2006
    515 H1        -13.2349  -15.9262   14.3969 H        16   G    0.3424
    516 H8        -12.9580  -17.1912   20.6641 H        16   G    0.1640
    517 H21       -14.0801  -13.9253   14.0749 H        16   G    0.4364
    518 H22       -14.5568  -12.8878   15.4002 H        16   G    0.4364
    519 HO2'      -15.7480  -12.7044   19.6461 H        16   G    0.4186
    520 P         -18.3880  -16.4520   20.9480 P.3      17   G    1.1662
    521 C5'       -19.1930  -14.4530   19.4770 C.3      17   G    0.0558
    522 O5'       -18.7030  -15.7870   19.5340 O.3      17   G   -0.4989
    523 C4'       -19.4910  -14.0470   18.0520 C.3      17   G    0.1065
    524 O4'       -18.2500  -13.8800   17.3350 O.3      17   G   -0.3548
    525 C3'       -20.2880  -15.0650   17.2510 C.3      17   G    0.2022
    526 O3'       -21.6590  -14.8310   17.4220 O.3      17   G   -0.5246
    527 C2'       -19.8470  -14.7910   15.8220 C.3      17   G    0.0670
    528 O2'       -20.5990  -13.7730   15.2050 O.3      17   G   -0.6139
    529 C1'       -18.3970  -14.3450   15.9990 C.3      17   G    0.0191
    530 N1        -16.2280  -17.3710   12.5020 N.am     17   G   -0.4787
    531 C2        -17.2210  -16.4330   12.3450 C.2      17   G    0.7657
    532 N2        -17.6610  -16.2340   11.0970 N.pl3    17   G   -0.9672
    533 N3        -17.7150  -15.7010   13.3380 N.2      17   G   -0.6323
    534 C4        -17.1330  -15.9950   14.5260 C.ar     17   G    0.1222
    535 C5        -16.1750  -16.9470   14.7920 C.ar     17   G    0.1744
    536 C6        -15.6440  -17.7100   13.7220 C.2      17   G    0.4770
    537 O6        -14.7670  -18.5820   13.7650 O.2      17   G   -0.5597
    538 N7        -15.8770  -16.9790   16.1450 N.ar     17   G   -0.5709
    539 C8        -16.6400  -16.0600   16.6630 C.ar     17   G    0.1374
    540 N9        -17.4190  -15.4070   15.7390 N.ar     17   G    0.0492
    541 OP1       -19.6060  -16.3870   21.7980 O.co2    17   G   -0.7760
    542 OP2       -17.7260  -17.7520   20.7000 O.co2    17   G   -0.7760
    543 H5'       -20.1074  -14.3836   20.0661 H        17   G    0.0679
    544 H5''      -18.4455  -13.7779   19.8937 H        17   G    0.0679
    545 H4'       -20.0289  -13.0990   18.0575 H        17   G    0.1174
    546 H3'       -20.0284  -16.0810   17.5484 H        17   G    0.0615
    547 H2'       -19.8918  -15.7055   15.2306 H        17   G    0.0972
    548 H1'       -18.2014  -13.5166   15.3180 H        17   G    0.2006
    549 H1        -15.8983  -17.8482   11.6752 H        17   G    0.3424
    550 H8        -16.6587  -15.8327   17.7186 H        17   G    0.1640
    551 H21       -17.2775  -16.7735   10.3342 H        17   G    0.4364
    552 H22       -18.3767  -15.5442   10.9179 H        17   G    0.4364
    553 HO2'      -20.2242  -13.5760   14.3434 H        17   G    0.4186
    554 P         -22.7140  -16.0220   17.2950 P.3      18   U    1.1662
    555 C5'       -23.2930  -15.5540   14.7610 C.3      18   U    0.0558
    556 O5'       -22.6700  -16.4060   15.7390 O.3      18   U   -0.4989
    557 C4'       -23.0300  -16.0550   13.3510 C.3      18   U    0.1065
    558 O4'       -21.6090  -16.0860   13.0920 O.3      18   U   -0.3548
    559 C3'       -23.4510  -17.4780   13.1100 C.3      18   U    0.2022
    560 O3'       -24.8270  -17.5770   12.8840 O.3      18   U   -0.5246
    561 C2'       -22.6240  -17.8710   11.9000 C.3      18   U    0.0670
    562 O2'       -23.2040  -17.5110   10.6700 O.3      18   U   -0.6139
    563 C1'       -21.3330  -17.1090   12.1340 C.3      18   U    0.0674
    564 N1        -20.2220  -18.0170   12.6240 N.am     18   U    0.0418
    565 C2        -19.5500  -18.8200   11.7010 C.2      18   U    0.4687
    566 O2        -19.7410  -18.7610   10.4980 O.2      18   U   -0.5477
    567 N3        -18.5790  -19.6430   12.2410 N.am     18   U   -0.3549
    568 C4        -18.2520  -19.7830   13.5780 C.2      18   U    0.5952
    569 O4        -17.3650  -20.5610   13.9040 O.2      18   U   -0.5761
    570 C5        -19.0200  -18.9550   14.4840 C.2      18   U   -0.3635
    571 C6        -19.9680  -18.1350   13.9900 C.2      18   U   -0.1126
    572 OP1       -24.0450  -15.4490   17.6090 O.co2    18   U   -0.7760
    573 OP2       -22.2140  -17.1830   18.0570 O.co2    18   U   -0.7760
    574 H5'       -24.3685  -15.5369   14.9376 H        18   U    0.0679
    575 H5''      -22.8972  -14.5434   14.8619 H        18   U    0.0679
    576 H4'       -23.5204  -15.3999   12.6310 H        18   U    0.1174
    577 H3'       -23.1719  -18.0951   13.9640 H        18   U    0.0615
    578 H2'       -22.4291  -18.9433   11.9174 H        18   U    0.0972
    579 H1'       -21.0226  -16.6433   11.1987 H        18   U    0.1824
    580 H3        -18.0505  -20.2034   11.5878 H        18   U    0.3154
    581 H5        -18.8344  -18.9944   15.5472 H        18   U    0.1811
    582 H6        -20.5545  -17.5457   14.6793 H        18   U    0.2188
    583 HO2'      -24.0178  -18.0041   10.5429 H        18   U    0.4186
    584 P         -25.6170  -18.7900   13.5640 P.3      19   G    1.1662
    585 C5'       -25.5480  -20.0370   11.2970 C.3      19   G    0.0558
    586 O5'       -25.2280  -20.0310   12.6570 O.3      19   G   -0.4989
    587 C4'       -24.6700  -21.0200   10.5870 C.3      19   G    0.1065
    588 O4'       -23.2880  -20.6200   10.7400 O.3      19   G   -0.3548
    589 C3'       -24.7120  -22.4200   11.1630 C.3      19   G    0.2022
    590 O3'       -25.8530  -23.1320   10.6850 O.3      19   G   -0.5246
    591 C2'       -23.4090  -22.9760   10.6280 C.3      19   G    0.0670
    592 O2'       -23.4830  -23.2780    9.2460 O.3      19   G   -0.6139
    593 C1'       -22.4760  -21.7820   10.8510 C.3      19   G    0.0191
    594 N1        -18.8010  -23.9190   13.6980 N.am     19   G   -0.4787
    595 C2        -19.1010  -24.1030   12.3660 C.2      19   G    0.7657
    596 N2        -18.3280  -24.9600   11.7020 N.pl3    19   G   -0.9672
    597 N3        -20.0690  -23.4640   11.7250 N.2      19   G   -0.6323
    598 C4        -20.7460  -22.6170   12.5380 C.ar     19   G    0.1222
    599 C5        -20.5380  -22.3730   13.8890 C.ar     19   G    0.1744
    600 C6        -19.4860  -23.0570   14.5600 C.2      19   G    0.4770
    601 O6        -19.1300  -22.9540   15.7500 O.2      19   G   -0.5597
    602 N7        -21.4430  -21.4340   14.3650 N.ar     19   G   -0.5709
    603 C8        -22.1790  -21.1400   13.3180 C.ar     19   G    0.1374
    604 N9        -21.8020  -21.8070   12.1660 N.ar     19   G    0.0492
    605 OP1       -27.0780  -18.5310   13.4300 O.co2    19   G   -0.7760
    606 OP2       -25.0210  -19.0330   14.9050 O.co2    19   G   -0.7760
    607 H5'       -25.3904  -19.0417   10.8815 H        19   G    0.0679
    608 H5''      -26.5920  -20.3234   11.1700 H        19   G    0.0679
    609 H4'       -24.9301  -21.0491    9.5289 H        19   G    0.1174
    610 H3'       -24.7022  -22.3909   12.2526 H        19   G    0.0615
    611 H2'       -23.0844  -23.8427   11.2039 H        19   G    0.0972
    612 H1'       -21.7220  -21.7667   10.0640 H        19   G    0.2006
    613 H1        -18.0288  -24.4459   14.0803 H        19   G    0.3424
    614 H8        -23.0025  -20.4421   13.3529 H        19   G    0.1640
    615 H21       -17.5803  -25.4414   12.1809 H        19   G    0.4364
    616 H22       -18.4893  -25.1287   10.7193 H        19   G    0.4364
    617 HO2'      -22.6028  -23.2486    8.8640 H        19   G    0.4186
    618 P         -26.8460  -23.8430   11.7250 P.3      20   A    1.1662
    619 C5'       -26.5010  -26.1930   12.8830 C.3      20   A    0.0558
    620 O5'       -25.9200  -24.9910   12.3520 O.3      20   A   -0.4989
    621 C4'       -25.6170  -27.4100   12.6170 C.3      20   A    0.1065
    622 O4'       -25.9500  -27.9850   11.3280 O.3      20   A   -0.3548
    623 C3'       -24.1350  -27.1230   12.5480 C.3      20   A    0.2022
    624 O3'       -23.5640  -27.2450   13.8060 O.3      20   A   -0.5246
    625 C2'       -23.6110  -28.1770   11.5840 C.3      20   A    0.0670
    626 O2'       -23.2760  -29.3970   12.2150 O.3      20   A   -0.6139
    627 C1'       -24.7720  -28.3580   10.6310 C.3      20   A    0.0394
    628 N1        -23.0450  -28.0580    5.7720 N.ar     20   A   -0.7615
    629 C2        -22.9130  -29.0150    6.7110 C.ar     20   A    0.5875
    630 N3        -23.3770  -29.0280    7.9670 N.ar     20   A   -0.6997
    631 C4        -24.0340  -27.8800    8.2500 C.ar     20   A    0.3053
    632 C5        -24.2610  -26.8120    7.3860 C.ar     20   A    0.0515
    633 C6        -23.7370  -26.9270    6.0780 C.ar     20   A    0.7009
    634 N6        -23.8650  -25.9690    5.1500 N.pl3    20   A   -0.9019
    635 N7        -24.9950  -25.8140    8.0160 N.ar     20   A   -0.6073
    636 C8        -25.2000  -26.2900    9.2210 C.ar     20   A    0.2006
    637 N9        -24.6650  -27.5410    9.4260 N.ar     20   A   -0.0251
    638 OP1       -27.9460  -24.4650   10.9490 O.co2    20   A   -0.7760
    639 OP2       -27.1710  -22.8750   12.8010 O.co2    20   A   -0.7760
    640 H5'       -26.6298  -26.0780   13.9592 H        20   A    0.0679
    641 H5''      -27.4757  -26.3522   12.4219 H        20   A    0.0679
    642 H4'       -25.7971  -28.1540   13.3930 H        20   A    0.1174
    643 H3'       -23.9608  -26.1240   12.1482 H        20   A    0.0615
    644 H2'       -22.7465  -27.7891   11.0452 H        20   A    0.0972
    645 H1'       -24.8415  -29.4080   10.3467 H        20   A    0.2007
    646 H2        -22.3574  -29.8908    6.4098 H        20   A    0.0473
    647 H8        -25.7401  -25.7487    9.9836 H        20   A    0.1553
    648 H61       -23.4609  -26.0967    4.2332 H        20   A    0.4115
    649 H62       -24.3656  -25.1191    5.3673 H        20   A    0.4115
    650 HO2'      -24.0326  -29.7191   12.7103 H        20   A    0.4186
    651 P         -22.4050  -26.2510   14.2100 P.3      21   A    1.1662
    652 C5'       -20.5270  -28.0620   13.6360 C.3      21   A    0.0558
    653 O5'       -21.1510  -26.7880   13.3340 O.3      21   A   -0.4989
    654 C4'       -19.7830  -28.6550   12.4330 C.3      21   A    0.1065
    655 O4'       -20.6320  -28.6850   11.2750 O.3      21   A   -0.3548
    656 C3'       -18.5520  -27.9030   12.0010 C.3      21   A    0.2022
    657 O3'       -17.4490  -28.3660   12.7080 O.3      21   A   -0.5246
    658 C2'       -18.4260  -28.2370   10.5260 C.3      21   A    0.0670
    659 O2'       -17.6980  -29.4320   10.3020 O.3      21   A   -0.6139
    660 C1'       -19.8820  -28.3930   10.1020 C.3      21   A    0.0394
    661 N1        -20.6440  -25.6940    5.6890 N.ar     21   A   -0.7615
    662 C2        -20.0000  -26.8520    5.9250 C.ar     21   A    0.5875
    663 N3        -19.8370  -27.5100    7.0880 N.ar     21   A   -0.6997
    664 C4        -20.4240  -26.8430    8.1070 C.ar     21   A    0.3053
    665 C5        -21.1290  -25.6500    8.0100 C.ar     21   A    0.0515
    666 C6        -21.2240  -25.0540    6.7270 C.ar     21   A    0.7009
    667 N6        -21.8670  -23.9100    6.4940 N.pl3    21   A   -0.9019
    668 N7        -21.5970  -25.2650    9.2470 N.ar     21   A   -0.6073
    669 C8        -21.1670  -26.1950   10.0660 C.ar     21   A    0.2006
    670 N9        -20.4520  -27.1880    9.4580 N.ar     21   A   -0.0251
    671 OP1       -22.1310  -26.4450   15.6470 O.co2    21   A   -0.7760
    672 OP2       -22.7840  -24.9090   13.7100 O.co2    21   A   -0.7760
    673 H5'       -19.8160  -27.9181   14.4495 H        21   A    0.0679
    674 H5''      -21.2955  -28.7647   13.9581 H        21   A    0.0679
    675 H4'       -19.4948  -29.6778   12.6758 H        21   A    0.1174
    676 H3'       -18.6825  -26.8305   12.1456 H        21   A    0.0615
    677 H2'       -17.9640  -27.4080    9.9899 H        21   A    0.0972
    678 H1'       -19.9616  -29.2337    9.4128 H        21   A    0.2007
    679 H2        -19.5513  -27.3185    5.0605 H        21   A    0.0473
    680 H8        -21.3612  -26.1774   11.1283 H        21   A    0.1553
    681 H61       -21.2112  -23.1696    6.2894 H        21   A    0.4115
    682 H62       -22.5148  -24.0239    5.7275 H        21   A    0.4115
    683 HO2'      -16.7864  -29.3081   10.5764 H        21   A    0.4186
    684 P         -16.5720  -27.3410   13.5430 P.3      22   A    1.1662
    685 C5'       -15.1210  -26.9010   11.4160 C.3      22   A    0.0558
    686 O5'       -15.9960  -26.3710   12.4060 O.3      22   A   -0.4989
    687 C4'       -14.3120  -25.8170   10.7480 C.3      22   A    0.1065
    688 O4'       -15.1950  -24.8770   10.1480 O.3      22   A   -0.3548
    689 C3'       -13.4330  -24.9890   11.6840 C.3      22   A    0.2022
    690 O3'       -12.0950  -25.5480   11.7430 O.3      22   A   -0.5246
    691 C2'       -13.4630  -23.5710   11.0680 C.3      22   A    0.0670
    692 O2'       -12.1960  -23.1640   10.5860 O.3      22   A   -0.6139
    693 C1'       -14.4610  -23.7170    9.9010 C.3      22   A    0.0394
    694 N1        -16.4920  -20.2470    6.6600 N.ar     22   A   -0.7615
    695 C2        -15.5260  -21.1750    6.4990 C.ar     22   A    0.5875
    696 N3        -15.0520  -22.0580    7.3840 N.ar     22   A   -0.6997
    697 C4        -15.6600  -21.9110    8.5810 C.ar     22   A    0.3053
    698 C5        -16.6660  -21.0000    8.9030 C.ar     22   A    0.0515
    699 C6        -17.0710  -20.1080    7.8730 C.ar     22   A    0.7009
    700 N6        -17.9920  -19.1560    8.0340 N.pl3    22   A   -0.9019
    701 N7        -17.0540  -21.1460   10.2290 N.ar     22   A   -0.6073
    702 C8        -16.2800  -22.1140   10.6810 C.ar     22   A    0.2006
    703 N9        -15.3970  -22.6050    9.7440 N.ar     22   A   -0.0251
    704 OP1       -15.4450  -28.0980   14.1560 O.co2    22   A   -0.7760
    705 OP2       -17.4990  -26.5620   14.4040 O.co2    22   A   -0.7760
    706 H5'       -14.4403  -27.6089   11.8889 H        22   A    0.0679
    707 H5''      -15.7102  -27.4224   10.6616 H        22   A    0.0679
    708 H4'       -13.6874  -26.2636    9.9744 H        22   A    0.1174
    709 H3'       -13.8706  -24.9688   12.6821 H        22   A    0.0615
    710 H2'       -13.8377  -22.8518   11.7963 H        22   A    0.0972
    711 H1'       -13.9033  -23.8429    8.9730 H        22   A    0.2007
    712 H2        -15.0727  -21.2094    5.5193 H        22   A    0.0473
    713 H8        -16.3335  -22.4875   11.6929 H        22   A    0.1553
    714 H61       -18.2389  -18.5561    7.2599 H        22   A    0.4115
    715 H62       -18.4422  -19.0353    8.9300 H        22   A    0.4115
    716 HO2'      -12.2117  -22.2223   10.4002 H        22   A    0.4186
    717 P         -11.6190  -26.3720   13.0470 P.3      23   U    1.1662
    718 C5'       -10.9150  -24.0230   14.0790 C.3      23   U    0.0558
    719 O5'       -10.5600  -25.3750   13.7540 O.3      23   U   -0.4989
    720 C4'        -9.6810  -23.1380   14.2600 C.3      23   U    0.1065
    721 O4'        -8.8290  -23.6460   15.3110 O.3      23   U   -0.3548
    722 C3'        -8.8080  -22.9520   13.0220 C.3      23   U    0.2022
    723 O3'        -8.6740  -21.5850   12.7470 O.3      23   U   -0.5246
    724 C2'        -7.4630  -23.5780   13.4080 C.3      23   U    0.0670
    725 O2'        -6.3610  -22.8400   12.9140 O.3      23   U   -0.6139
    726 C1'        -7.4780  -23.5420   14.9320 C.3      23   U    0.0674
    727 N1         -6.7110  -24.6910   15.5590 N.am     23   U    0.0418
    728 C2         -5.3670  -24.5220   15.9240 C.2      23   U    0.4687
    729 O2         -4.7570  -23.4590   15.8230 O.2      23   U   -0.5477
    730 N3         -4.7560  -25.6700   16.4150 N.am     23   U   -0.3549
    731 C4         -5.3380  -26.9270   16.5700 C.2      23   U    0.5952
    732 O4         -4.6840  -27.8490   17.0350 O.2      23   U   -0.5761
    733 C5         -6.7140  -27.0160   16.1530 C.2      23   U   -0.3635
    734 C6         -7.3270  -25.9300   15.6630 C.2      23   U   -0.1126
    735 OP1       -10.8800  -27.5700   12.5880 O.co2    23   U   -0.7760
    736 OP2       -12.8020  -26.5490   13.9500 O.co2    23   U   -0.7760
    737 H5'       -11.4882  -24.0223   15.0061 H        23   U    0.0679
    738 H5''      -11.5319  -23.6145   13.2786 H        23   U    0.0679
    739 H4'       -10.0277  -22.1514   14.5675 H        23   U    0.1174
    740 H3'        -9.2406  -23.4728   12.1678 H        23   U    0.0615
    741 H2'        -7.4133  -24.6086   13.0567 H        23   U    0.0972
    742 H1'        -7.0701  -22.5935   15.2814 H        23   U    0.1824
    743 H3         -3.7875  -25.5842   16.6885 H        23   U    0.3154
    744 H5         -7.2477  -27.9514   16.2347 H        23   U    0.1811
    745 H6         -8.3510  -26.0236   15.3327 H        23   U    0.2188
    746 HO2'       -6.3604  -22.8687   11.9544 H        23   U    0.4186
    747 P          -9.7280  -20.8540   11.8130 P.3      24   U    1.1662
    748 C5'        -8.2590  -21.2750    9.7000 C.3      24   U    0.0558
    749 O5'        -9.4630  -21.5240   10.3900 O.3      24   U   -0.4989
    750 C4'        -8.3920  -21.6380    8.2340 C.3      24   U    0.1065
    751 O4'        -8.5330  -23.0720    8.0660 O.3      24   U   -0.3548
    752 C3'        -9.5660  -20.9950    7.5070 C.3      24   U    0.2022
    753 O3'        -9.0930  -20.3180    6.3510 O.3      24   U   -0.5246
    754 C2'       -10.4440  -22.1860    7.1340 C.3      24   U    0.0670
    755 O2'       -11.1290  -21.9910    5.9090 O.3      24   U   -0.6139
    756 C1'        -9.4120  -23.3070    7.0140 C.3      24   U    0.0674
    757 N1        -10.0070  -24.7140    7.1360 N.am     24   U    0.0418
    758 C2        -10.2070  -25.4720    5.9780 C.2      24   U    0.4687
    759 O2         -9.8030  -25.1400    4.8790 O.2      24   U   -0.5477
    760 N3        -10.8580  -26.6730    6.1720 N.am     24   U   -0.3549
    761 C4        -11.3550  -27.1780    7.3620 C.2      24   U    0.5952
    762 O4        -11.8990  -28.2810    7.3720 O.2      24   U   -0.5761
    763 C5        -11.1640  -26.3200    8.5160 C.2      24   U   -0.3635
    764 C6        -10.5290  -25.1410    8.3620 C.2      24   U   -0.1126
    765 OP1        -9.3810  -19.4160   11.7600 O.co2    24   U   -0.7760
    766 OP2       -11.0840  -21.2360   12.2440 O.co2    24   U   -0.7760
    767 H5'        -7.4627  -21.8719   10.1447 H        24   U    0.0679
    768 H5''       -8.0071  -20.2181    9.7870 H        24   U    0.0679
    769 H4'        -7.4765  -21.3303    7.7287 H        24   U    0.1174
    770 H3'       -10.1011  -20.3104    8.1651 H        24   U    0.0615
    771 H2'       -11.1507  -22.4034    7.9348 H        24   U    0.0972
    772 H1'        -8.8811  -23.2154    6.0665 H        24   U    0.1824
    773 H3        -10.9868  -27.2496    5.3528 H        24   U    0.3154
    774 H5        -11.5264  -26.6224    9.4874 H        24   U    0.1811
    775 H6        -10.4183  -24.4978    9.2225 H        24   U    0.2188
    776 HO2'      -11.7595  -21.2735    6.0056 H        24   U    0.4186
    777 P          -8.9130  -18.7370    6.3630 P.3      25   C    1.1662
    778 C5'       -11.1170  -18.1120    5.0630 C.3      25   C    0.0558
    779 O5'       -10.4320  -18.2200    6.3230 O.3      25   C   -0.4989
    780 C4'       -12.4600  -17.3970    5.1960 C.3      25   C    0.1065
    781 O4'       -13.4490  -18.3030    5.7530 O.3      25   C   -0.3548
    782 C3'       -12.4720  -16.1720    6.0890 C.3      25   C    0.2022
    783 O3'       -12.1620  -15.0010    5.3080 O.3      25   C   -0.5246
    784 C2'       -13.9180  -16.1520    6.5840 C.3      25   C    0.0670
    785 O2'       -14.7990  -15.5380    5.6630 O.3      25   C   -0.6139
    786 C1'       -14.2480  -17.6350    6.7000 C.3      25   C    0.0066
    787 N1        -14.0250  -18.2540    8.0740 N.am     25   C   -0.0484
    788 C2        -14.8960  -17.9420    9.1530 C.2      25   C    0.7538
    789 O2        -15.7930  -17.0960    8.9970 O.2      25   C   -0.6252
    790 N3        -14.7000  -18.5590   10.3620 N.2      25   C   -0.7584
    791 C4        -13.7270  -19.4760   10.5040 C.2      25   C    0.8185
    792 N4        -13.5750  -20.0600   11.7010 N.pl3    25   C   -0.9530
    793 C5        -12.8660  -19.8270    9.4150 C.2      25   C   -0.5215
    794 C6        -13.0600  -19.2120    8.2330 C.2      25   C    0.0053
    795 OP1        -8.2350  -18.3470    5.1020 O.co2    25   C   -0.7760
    796 OP2        -8.3240  -18.3460    7.6800 O.co2    25   C   -0.7760
    797 H5'       -11.2903  -19.1141    4.6708 H        25   C    0.0679
    798 H5''      -10.4888  -17.5605    4.3634 H        25   C    0.0679
    799 H4'       -12.7899  -17.0991    4.2008 H        25   C    0.1174
    800 H3'       -11.7749  -16.2853    6.9193 H        25   C    0.0615
    801 H2'       -13.9831  -15.6674    7.5582 H        25   C    0.0972
    802 H1'       -15.2937  -17.7758    6.4264 H        25   C    0.2029
    803 H5        -12.0848  -20.5626    9.5380 H        25   C    0.1928
    804 H6        -12.4398  -19.4807    7.3906 H        25   C    0.1958
    805 H41       -14.1838  -19.8084   12.4666 H        25   C    0.4234
    806 H42       -12.8516  -20.7516   11.8373 H        25   C    0.4234
    807 HO2'      -14.7030  -15.9536    4.8029 H        25   C    0.4186
    808 P         -11.2390  -13.8220    5.9110 P.3      26   C    1.1662
    809 C5'       -13.3520  -12.5120    6.7070 C.3      26   C    0.0558
    810 O5'       -12.1620  -13.1890    7.0560 O.3      26   C   -0.4989
    811 C4'       -14.1940  -12.2280    7.9290 C.3      26   C    0.1065
    812 O4'       -14.7410  -13.4600    8.4610 O.3      26   C   -0.3548
    813 C3'       -13.4480  -11.6550    9.1030 C.3      26   C    0.2022
    814 O3'       -13.1500  -10.3090    8.9030 O.3      26   C   -0.5246
    815 C2'       -14.4480  -11.8880   10.2200 C.3      26   C    0.0670
    816 O2'       -15.5340  -10.9720   10.1900 O.3      26   C   -0.6139
    817 C1'       -14.9220  -13.3140    9.8700 C.3      26   C    0.0066
    818 N1        -14.1260  -14.3920   10.5780 N.am     26   C   -0.0484
    819 C2        -14.3500  -14.6540   11.9470 C.2      26   C    0.7538
    820 O2        -15.2330  -14.0410   12.5480 O.2      26   C   -0.6252
    821 N3        -13.5730  -15.5810   12.5760 N.2      26   C   -0.7584
    822 C4        -12.6050  -16.2240   11.8990 C.2      26   C    0.8185
    823 N4        -11.8730  -17.1350   12.5530 N.pl3    26   C   -0.9530
    824 C5        -12.3530  -15.9630   10.5160 C.2      26   C   -0.5215
    825 C6        -13.1180  -15.0430    9.9080 C.2      26   C    0.0053
    826 OP1       -11.0470  -12.8030    4.8480 O.co2    26   C   -0.7760
    827 OP2       -10.0500  -14.4400    6.5680 O.co2    26   C   -0.7760
    828 H5'       -13.0964  -11.5690    6.2238 H        26   C    0.0679
    829 H5''      -13.9240  -13.1272    6.0125 H        26   C    0.0679
    830 H4'       -15.0099  -11.5581    7.6577 H        26   C    0.1174
    831 H3'       -12.5355  -12.2224    9.2862 H        26   C    0.0615
    832 H2'       -13.9542  -11.8716   11.1916 H        26   C    0.0972
    833 H1'       -15.9788  -13.4188   10.1158 H        26   C    0.2029
    834 H5        -11.5754  -16.4871    9.9801 H        26   C    0.1928
    835 H6        -12.9375  -14.8091    8.8692 H        26   C    0.1958
    836 H41       -12.0530  -17.3212   13.5292 H        26   C    0.4234
    837 H42       -11.1409  -17.6358   12.0700 H        26   C    0.4234
    838 HO2'      -15.2178  -10.0927   10.4102 H        26   C    0.4186
    839 P         -11.6890   -9.7910    9.2610 P.3      27   C    1.1662
    840 C5'       -12.4920   -8.4490   11.3400 C.3      27   C    0.0558
    841 O5'       -11.7910   -9.5720   10.8440 O.3      27   C   -0.4989
    842 C4'       -12.6060   -8.4540   12.8500 C.3      27   C    0.1065
    843 O4'       -13.2050   -9.6830   13.3000 O.3      27   C   -0.3548
    844 C3'       -11.3090   -8.3840   13.6290 C.3      27   C    0.2022
    845 O3'       -10.7720   -7.0710   13.6470 O.3      27   C   -0.5246
    846 C2'       -11.7950   -8.8050   14.9980 C.3      27   C    0.0670
    847 O2'       -12.4670   -7.7760   15.6910 O.3      27   C   -0.6139
    848 C1'       -12.7650   -9.9320   14.6330 C.3      27   C    0.0066
    849 N1        -12.1130  -11.3100   14.7190 N.am     27   C   -0.0484
    850 C2        -11.8140  -11.8630   15.9910 C.2      27   C    0.7538
    851 O2        -12.1190  -11.2410   17.0250 O.2      27   C   -0.6252
    852 N3        -11.2150  -13.0770   16.0490 N.2      27   C   -0.7584
    853 C4        -10.8960  -13.7240   14.9230 C.2      27   C    0.8185
    854 N4        -10.2940  -14.9120   15.0410 N.pl3    27   C   -0.9530
    855 C5        -11.2050  -13.1950   13.6300 C.2      27   C   -0.5215
    856 C6        -11.7800  -11.9880   13.5720 C.2      27   C    0.0053
    857 OP1       -11.5050   -8.4870    8.5800 O.co2    27   C   -0.7760
    858 OP2       -10.7250  -10.8970    9.0220 O.co2    27   C   -0.7760
    859 H5'       -11.9655   -7.5454   11.0328 H        27   C    0.0679
    860 H5''      -13.4934   -8.4386   10.9096 H        27   C    0.0679
    861 H4'       -13.2421   -7.6231   13.1551 H        27   C    0.1174
    862 H3'       -10.5820   -9.0961   13.2385 H        27   C    0.0615
    863 H2'       -10.9685   -9.1908   15.5947 H        27   C    0.0972
    864 H1'       -13.6223   -9.8987   15.3054 H        27   C    0.2029
    865 H5        -10.9818  -13.7509   12.7314 H        27   C    0.1928
    866 H6        -11.9849  -11.5411   12.6104 H        27   C    0.1958
    867 H41       -10.0874  -15.2847   15.9567 H        27   C    0.4234
    868 H42       -10.0459  -15.4367   14.2144 H        27   C    0.4234
    869 HO2'      -11.8449   -7.0789   15.9116 H        27   C    0.4186
    870 P          -9.1820   -6.8520   13.5150 P.3      28   G    1.1662
    871 C5'        -8.4660   -7.4500   15.9980 C.3      28   G    0.0558
    872 O5'        -8.5650   -7.8580   14.6280 O.3      28   G   -0.4989
    873 C4'        -8.3540   -8.6390   16.9440 C.3      28   G    0.1065
    874 O4'        -9.1390   -9.7620   16.4720 O.3      28   G   -0.3548
    875 C3'        -6.9640   -9.2130   17.1320 C.3      28   G    0.2022
    876 O3'        -6.2330   -8.4300   18.0650 O.3      28   G   -0.5246
    877 C2'        -7.2980  -10.5810   17.7030 C.3      28   G    0.0670
    878 O2'        -7.6530  -10.5120   19.0710 O.3      28   G   -0.6139
    879 C1'        -8.5090  -10.9780   16.8630 C.3      28   G    0.0191
    880 N1         -6.6530  -15.3330   14.8720 N.am     28   G   -0.4787
    881 C2         -6.8490  -15.0040   16.1990 C.2      28   G    0.7657
    882 N2         -6.4630  -15.9110   17.1010 N.pl3    28   G   -0.9672
    883 N3         -7.3620  -13.8450   16.6090 N.2      28   G   -0.6323
    884 C4         -7.6580  -13.0160   15.5640 C.ar     28   G    0.1222
    885 C5         -7.5150  -13.2670   14.2080 C.ar     28   G    0.1744
    886 C6         -6.9610  -14.5100   13.7840 C.2      28   G    0.4770
    887 O6         -6.7570  -14.9100   12.6220 O.2      28   G   -0.5597
    888 N7         -7.9630  -12.1960   13.4620 N.ar     28   G   -0.5709
    889 C8         -8.3270  -11.3140   14.3520 C.ar     28   G    0.1374
    890 N9         -8.1670  -11.7330   15.6500 N.ar     28   G    0.0492
    891 OP1        -8.8770   -5.4480   13.9000 O.co2    28   G   -0.7760
    892 OP2        -8.7700   -7.3440   12.1720 O.co2    28   G   -0.7760
    893 H5'        -7.5817   -6.8236   16.1149 H        28   G    0.0679
    894 H5''       -9.3501   -6.8691   16.2605 H        28   G    0.0679
    895 H4'        -8.7363   -8.3387   17.9196 H        28   G    0.1174
    896 H3'        -6.4359   -9.2963   16.1821 H        28   G    0.0615
    897 H2'        -6.4738  -11.2777   17.5501 H        28   G    0.0972
    898 H1'        -9.1972  -11.5634   17.4727 H        28   G    0.2006
    899 H1         -6.2558  -16.2397   14.6715 H        28   G    0.3424
    900 H8         -8.7188  -10.3419   14.0913 H        28   G    0.1640
    901 H21        -6.0629  -16.7871   16.7969 H        28   G    0.4364
    902 H22        -6.5713  -15.7205   18.0869 H        28   G    0.4364
    903 HO2'       -7.4156  -11.3344   19.5056 H        28   G    0.4186
    904 P          -4.6300   -8.3550   18.0000 P.3      29   A    1.1662
    905 C5'        -3.9840  -10.2530   19.6420 C.3      29   A    0.0558
    906 O5'        -4.1750   -9.8530   18.3100 O.3      29   A   -0.4989
    907 C4'        -3.7010  -11.7330   19.7340 C.3      29   A    0.1065
    908 O4'        -4.5820  -12.4790   18.8580 O.3      29   A   -0.3548
    909 C3'        -2.3350  -12.1760   19.2860 C.3      29   A    0.2022
    910 O3'        -1.3240  -11.8240   20.2430 O.3      29   A   -0.5246
    911 C2'        -2.5740  -13.6730   19.2010 C.3      29   A    0.0670
    912 O2'        -2.6780  -14.2770   20.4830 O.3      29   A   -0.6139
    913 C1'        -3.9390  -13.6960   18.5010 C.3      29   A    0.0394
    914 N1         -2.4480  -16.4450   14.3440 N.ar     29   A   -0.7615
    915 C2         -2.3710  -16.7000   15.6540 C.ar     29   A    0.5875
    916 N3         -2.7530  -15.9390   16.6880 N.ar     29   A   -0.6997
    917 C4         -3.3270  -14.7960   16.2660 C.ar     29   A    0.3053
    918 C5         -3.4840  -14.3940   14.9510 C.ar     29   A    0.0515
    919 C6         -3.0130  -15.2810   13.9490 C.ar     29   A    0.7009
    920 N6         -3.0830  -15.0100   12.6510 N.pl3    29   A   -0.9019
    921 N7         -4.0960  -13.1500   14.8870 N.ar     29   A   -0.6073
    922 C8         -4.2690  -12.8140   16.1450 C.ar     29   A    0.2006
    923 N9         -3.8540  -13.7670   17.0370 N.ar     29   A   -0.0251
    924 OP1        -4.2040   -7.4750   19.1140 O.co2    29   A   -0.7760
    925 OP2        -4.2030   -8.0490   16.6070 O.co2    29   A   -0.7760
    926 H5'        -3.1407   -9.7035   20.0604 H        29   A    0.0679
    927 H5''       -4.8813  -10.0237   20.2168 H        29   A    0.0679
    928 H4'        -3.8610  -12.0613   20.7610 H        29   A    0.1174
    929 H3'        -2.0980  -11.7658   18.3043 H        29   A    0.0615
    930 H2'        -1.8108  -14.1612   18.5949 H        29   A    0.0972
    931 H1'        -4.5233  -14.5380   18.8721 H        29   A    0.2007
    932 H2         -1.9397  -17.6549   15.9157 H        29   A    0.0473
    933 H8         -4.6997  -11.8713   16.4486 H        29   A    0.1553
    934 H61        -2.7255  -15.6718   11.9769 H        29   A    0.4115
    935 H62        -3.4937  -14.1421   12.3378 H        29   A    0.4115
    936 HO2'       -1.8213  -14.2596   20.9159 H        29   A    0.4186
    937 P           0.1340  -11.3410   19.7210 P.3      30   C    1.1662
    938 C5'         0.9650  -13.8010   20.1230 C.3      30   C    0.0558
    939 O5'         0.7970  -12.7030   19.2210 O.3      30   C   -0.4989
    940 C4'         1.3010  -15.0750   19.3680 C.3      30   C    0.1065
    941 O4'         0.2490  -15.3940   18.4280 O.3      30   C   -0.3548
    942 C3'         2.5430  -14.9900   18.5230 C.3      30   C    0.2022
    943 O3'         3.6450  -15.2270   19.3230 O.3      30   C   -0.5246
    944 C2'         2.3140  -16.1030   17.5240 C.3      30   C    0.0670
    945 O2'         2.6170  -17.3770   18.0530 O.3      30   C   -0.6139
    946 C1'         0.8140  -15.9920   17.2780 C.3      30   C    0.0066
    947 N1          0.4620  -15.1790   16.0660 N.am     30   C   -0.0484
    948 C2          0.6090  -15.7430   14.7740 C.2      30   C    0.7538
    949 O2          0.9630  -16.9210   14.6560 O.2      30   C   -0.6252
    950 N3          0.2880  -14.9900   13.6920 N.2      30   C   -0.7584
    951 C4         -0.1170  -13.7240   13.8520 C.2      30   C    0.8185
    952 N4         -0.4160  -13.0250   12.7560 N.pl3    30   C   -0.9530
    953 C5         -0.2460  -13.1240   15.1470 C.2      30   C   -0.5215
    954 C6          0.0330  -13.8840   16.2120 C.2      30   C    0.0053
    955 OP1         0.8950  -10.8380   20.8950 O.co2    30   C   -0.7760
    956 OP2        -0.0460  -10.4670   18.5240 O.co2    30   C   -0.7760
    957 H5'         1.7747  -13.5728   20.8161 H        30   C    0.0679
    958 H5''        0.0425  -13.9489   20.6845 H        30   C    0.0679
    959 H4'         1.4069  -15.8948   20.0785 H        30   C    0.1174
    960 H3'         2.6168  -14.0227   18.0261 H        30   C    0.0615
    961 H2'         2.8724  -15.9212   16.6057 H        30   C    0.0972
    962 H1'         0.4007  -16.9940   17.1625 H        30   C    0.2029
    963 H5         -0.5571  -12.0959   15.2591 H        30   C    0.1928
    964 H6         -0.0814  -13.4712   17.2034 H        30   C    0.1958
    965 H41        -0.3287  -13.4523   11.8450 H        30   C    0.4234
    966 H42        -0.7297  -12.0684   12.8371 H        30   C    0.4234
    967 HO2'        2.3619  -18.0547   17.4227 H        30   C    0.4186
    968 P           5.0330  -14.4880   19.0400 P.3      31   C    1.1662
    969 C5'         5.8370  -16.7550   18.0130 C.3      31   C    0.0558
    970 O5'         5.6200  -15.3540   17.8240 O.3      31   C   -0.4989
    971 C4'         6.0860  -17.4620   16.6980 C.3      31   C    0.1065
    972 O4'         4.9680  -17.2910   15.7990 O.3      31   C   -0.3548
    973 C3'         7.2580  -16.9290   15.9300 C.3      31   C    0.2022
    974 O3'         8.4060  -17.4770   16.4380 O.3      31   C   -0.5246
    975 C2'         6.9750  -17.4030   14.5120 C.3      31   C    0.0670
    976 O2'         7.4820  -18.6880   14.2600 O.3      31   C   -0.6139
    977 C1'         5.4360  -17.4160   14.4620 C.3      31   C    0.0066
    978 N1          4.8340  -16.3140   13.6370 N.am     31   C   -0.0484
    979 C2          4.9640  -16.3220   12.2260 C.2      31   C    0.7538
    980 O2          5.5870  -17.2400   11.6750 O.2      31   C   -0.6252
    981 N3          4.3360  -15.3400   11.4970 N.2      31   C   -0.7584
    982 C4          3.6310  -14.3820   12.1230 C.2      31   C    0.8185
    983 N4          3.0670  -13.4310   11.3780 N.pl3    31   C   -0.9530
    984 C5          3.5320  -14.3300   13.5510 C.2      31   C   -0.5215
    985 C6          4.1310  -15.3100   14.2610 C.2      31   C    0.0053
    986 OP1         5.8960  -14.7140   20.2270 O.co2    31   C   -0.7760
    987 OP2         4.7570  -13.0940   18.5680 O.co2    31   C   -0.7760
    988 H5'         6.7035  -16.8947   18.6593 H        31   C    0.0679
    989 H5''        4.9602  -17.1906   18.4922 H        31   C    0.0679
    990 H4'         6.2348  -18.5253   16.8859 H        31   C    0.1174
    991 H3'         7.2920  -15.8406   15.9772 H        31   C    0.0615
    992 H2'         7.3715  -16.6908   13.7884 H        31   C    0.0972
    993 H1'         5.1056  -18.3747   14.0623 H        31   C    0.2029
    994 H5          2.9956  -13.5327   14.0439 H        31   C    0.1928
    995 H6          4.0567  -15.3054   15.3384 H        31   C    0.1958
    996 H41         3.1571  -13.4572   10.3724 H        31   C    0.4234
    997 H42         2.5496  -12.6842   11.8193 H        31   C    0.4234
    998 HO2'        7.6426  -19.1381   15.0926 H        31   C    0.4186
    999 P           9.6820  -16.5670   16.6200 P.3      32   G    1.1662
   1000 C5'        10.6050  -17.9490   14.5780 C.3      32   G    0.0558
   1001 O5'        10.3530  -16.6690   15.1780 O.3      32   G   -0.4989
   1002 C4'        10.9840  -17.7800   13.1150 C.3      32   G    0.1065
   1003 O4'         9.8710  -17.1910   12.3950 O.3      32   G   -0.3548
   1004 C3'        12.1670  -16.8340   12.8620 C.3      32   G    0.2022
   1005 O3'        12.8870  -17.2220   11.6880 O.3      32   G   -0.5246
   1006 C2'        11.4740  -15.5050   12.6690 C.3      32   G    0.0670
   1007 O2'        12.2960  -14.5580   12.0120 O.3      32   G   -0.6139
   1008 C1'        10.2950  -15.9730   11.8030 C.3      32   G    0.0191
   1009 N1          6.6740  -13.7760    8.9360 N.am     32   G   -0.4787
   1010 C2          7.6410  -14.6760    8.5600 C.2      32   G    0.7657
   1011 N2          7.6360  -15.0430    7.2690 N.pl3    32   G   -0.9672
   1012 N3          8.5410  -15.2060    9.4050 N.2      32   G   -0.6323
   1013 C4          8.3850  -14.7420   10.6740 C.ar     32   G    0.1222
   1014 C5          7.4600  -13.8380   11.1350 C.ar     32   G    0.1744
   1015 C6          6.5110  -13.2950   10.2320 C.2      32   G    0.4770
   1016 O6          5.6330  -12.4720   10.4710 O.2      32   G   -0.5597
   1017 N7          7.6340  -13.6010   12.4890 N.ar     32   G   -0.5709
   1018 C8          8.6240  -14.3690   12.8210 C.ar     32   G    0.1374
   1019 N9          9.1590  -15.0600   11.7660 N.ar     32   G    0.0492
   1020 OP1        10.5520  -17.2100   17.6320 O.co2    32   G   -0.7760
   1021 OP2         9.2390  -15.1690   16.8320 O.co2    32   G   -0.7760
   1022 H5'        11.4223  -18.4393   15.1068 H        32   G    0.0679
   1023 H5''        9.7081  -18.5642   14.6498 H        32   G    0.0679
   1024 H4'        11.2095  -18.7573   12.6883 H        32   G    0.1174
   1025 H3'        12.8283  -16.8025   13.7279 H        32   G    0.0615
   1026 H2'        11.1202  -15.1127   13.6224 H        32   G    0.0972
   1027 H1'        10.6423  -16.1634   10.7875 H        32   G    0.2006
   1028 H1          6.0393  -13.4411    8.2253 H        32   G    0.3424
   1029 H8          8.9919  -14.4558   13.8327 H        32   G    0.1640
   1030 H21         6.9531  -14.6524    6.6356 H        32   G    0.4364
   1031 H22         8.3151  -15.7098    6.9309 H        32   G    0.4364
   1032 HO2'       13.0884  -14.4065   12.5323 H        32   G    0.4186
   1033 P          14.4530  -17.4920   11.8000 P.3      33   G    1.1662
   1034 C5'        14.2240  -20.0600   11.2580 C.3      33   G    0.0558
   1035 O5'        14.6530  -18.7600   10.8310 O.3      33   G   -0.4989
   1036 C4'        15.1420  -21.1650   10.7380 C.3      33   G    0.1065
   1037 O4'        14.6130  -21.6540    9.4780 O.3      33   G   -0.3548
   1038 C3'        16.6050  -20.7680   10.4560 C.3      33   G    0.2022
   1039 O3'        17.4480  -21.0130   11.5910 O.3      33   G   -0.5246
   1040 C2'        16.9800  -21.6680    9.2860 C.3      33   G    0.0670
   1041 O2'        17.4450  -22.9450    9.6880 O.3      33   G   -0.6139
   1042 C1'        15.6590  -21.7720    8.5290 C.3      33   G    0.0191
   1043 N1         17.1170  -20.1310    3.9490 N.am     33   G   -0.4787
   1044 C2         17.5070  -21.2610    4.6360 C.2      33   G    0.7657
   1045 N2         18.4000  -22.0510    4.0300 N.pl3    33   G   -0.9672
   1046 N3         17.0710  -21.5750    5.8460 N.2      33   G   -0.6323
   1047 C4         16.1910  -20.6530    6.3220 C.ar     33   G    0.1222
   1048 C5         15.7430  -19.4980    5.7150 C.ar     33   G    0.1744
   1049 C6         16.2100  -19.1800    4.4230 C.2      33   G    0.4770
   1050 O6         15.9630  -18.1730    3.7530 O.2      33   G   -0.5597
   1051 N7         14.8200  -18.8400    6.5180 N.ar     33   G   -0.5709
   1052 C8         14.7500  -19.5810    7.5910 C.ar     33   G    0.1374
   1053 N9         15.5090  -20.7310    7.5130 N.ar     33   G    0.0492
   1054 OP1        14.7610  -17.8860   13.2040 O.co2    33   G   -0.7760
   1055 OP2        15.1640  -16.3420   11.2010 O.co2    33   G   -0.7760
   1056 H5'        14.2207  -20.0891   12.3476 H        33   G    0.0679
   1057 H5''       13.2119  -20.2378   10.8944 H        33   G    0.0679
   1058 H4'        15.1382  -21.9847   11.4564 H        33   G    0.1174
   1059 H3'        16.6626  -19.7203   10.1610 H        33   G    0.0615
   1060 H2'        17.7286  -21.1777    8.6636 H        33   G    0.0972
   1061 H1'        15.5980  -22.7493    8.0503 H        33   G    0.2006
   1062 H1         17.5172  -19.9793    3.0341 H        33   G    0.3424
   1063 H8         14.1565  -19.3196    8.4546 H        33   G    0.1640
   1064 H21        18.7447  -21.8117    3.1113 H        33   G    0.4364
   1065 H22        18.7297  -22.8869    4.4911 H        33   G    0.4364
   1066 HO2'       16.7950  -23.3559   10.2627 H        33   G    0.4186
   1067 P          18.7900  -20.1410   11.8170 P.3      34   U    1.1662
   1068 C5'        20.3880  -21.6900   10.4380 C.3      34   U    0.0558
   1069 O5'        19.6700  -20.4660   10.5160 O.3      34   U   -0.4989
   1070 C4'        21.1220  -21.8290    9.1160 C.3      34   U    0.1065
   1071 O4'        20.1870  -21.7610    8.0190 O.3      34   U   -0.3548
   1072 C3'        22.0950  -20.7270    8.7970 C.3      34   U    0.2022
   1073 O3'        23.2680  -20.8820    9.5100 O.3      34   U   -0.5246
   1074 C2'        22.2870  -20.9320    7.3090 C.3      34   U    0.0670
   1075 O2'        23.1200  -22.0280    7.0120 O.3      34   U   -0.6139
   1076 C1'        20.8550  -21.2330    6.8780 C.3      34   U    0.0674
   1077 N1         20.1220  -20.0180    6.3910 N.am     34   U    0.0418
   1078 C2         20.2730  -19.6130    5.0660 C.2      34   U    0.4687
   1079 O2         20.9130  -20.2370    4.2400 O.2      34   U   -0.5477
   1080 N3         19.5770  -18.4740    4.7300 N.am     34   U   -0.3549
   1081 C4         18.8100  -17.6760    5.5800 C.2      34   U    0.5952
   1082 O4         18.2240  -16.6920    5.1340 O.2      34   U   -0.5761
   1083 C5         18.7220  -18.1490    6.9420 C.2      34   U   -0.3635
   1084 C6         19.3660  -19.2710    7.2890 C.2      34   U   -0.1126
   1085 OP1        19.4870  -20.6770   13.0130 O.co2    34   U   -0.7760
   1086 OP2        18.4210  -18.7040   11.7730 O.co2    34   U   -0.7760
   1087 H5'        21.1141  -21.7255   11.2502 H        34   U    0.0679
   1088 H5''       19.6902  -22.5202   10.5472 H        34   U    0.0679
   1089 H4'        21.6405  -22.7874    9.0898 H        34   U    0.1174
   1090 H3'        21.6502  -19.7521    8.9963 H        34   U    0.0615
   1091 H2'        22.6545  -20.0224    6.8339 H        34   U    0.0972
   1092 H1'        20.8678  -21.9851    6.0892 H        34   U    0.1824
   1093 H3         19.6268  -18.1844    3.7637 H        34   U    0.3154
   1094 H5         18.1431  -17.6038    7.6728 H        34   U    0.1811
   1095 H6         19.2953  -19.6111    8.3116 H        34   U    0.2188
   1096 HO2'       23.7038  -21.7983    6.2854 H        34   U    0.4186
   1097 P          24.0480  -19.5820    9.9990 P.3      35   G    1.1662
   1098 C5'        25.7960  -19.7880    8.0770 C.3      35   G    0.0558
   1099 O5'        24.7250  -19.0410    8.6540 O.3      35   G   -0.4989
   1100 C4'        26.2200  -19.2400    6.7260 C.3      35   G    0.1065
   1101 O4'        25.1720  -19.4480    5.7360 O.3      35   G   -0.3548
   1102 C3'        26.4910  -17.7560    6.6670 C.3      35   G    0.2022
   1103 O3'        27.7770  -17.4780    7.1690 O.3      35   G   -0.5246
   1104 C2'        26.3910  -17.5260    5.1660 C.3      35   G    0.0670
   1105 O2'        27.4840  -18.0550    4.4600 O.3      35   G   -0.6139
   1106 C1'        25.1490  -18.3380    4.8400 C.3      35   G    0.0191
   1107 N1         22.3190  -14.3280    3.4480 N.am     35   G   -0.4787
   1108 C2         23.4740  -14.8200    2.8780 C.2      35   G    0.7657
   1109 N2         23.9360  -14.1600    1.8150 N.pl3    35   G   -0.9672
   1110 N3         24.1110  -15.9040    3.3030 N.2      35   G   -0.6323
   1111 C4         23.5080  -16.4570    4.3860 C.ar     35   G    0.1222
   1112 C5         22.3770  -16.0280    5.0450 C.ar     35   G    0.1744
   1113 C6         21.6710  -14.8940    4.5530 C.2      35   G    0.4770
   1114 O6         20.6320  -14.3740    5.0060 O.2      35   G   -0.5597
   1115 N7         22.0970  -16.8530    6.1220 N.ar     35   G   -0.5709
   1116 C8         23.0430  -17.7410    6.1000 C.ar     35   G    0.1374
   1117 N9         23.9190  -17.5850    5.0590 N.ar     35   G    0.0492
   1118 OP1        25.1120  -20.0250   10.9260 O.co2    35   G   -0.7760
   1119 OP2        23.0570  -18.5750   10.4490 O.co2    35   G   -0.7760
   1120 H5'        26.6506  -19.7538    8.7527 H        35   G    0.0679
   1121 H5''       25.4807  -20.8244    7.9562 H        35   G    0.0679
   1122 H4'        27.1153  -19.7701    6.4012 H        35   G    0.1174
   1123 H3'        25.7274  -17.1936    7.2043 H        35   G    0.0615
   1124 H2'        26.2451  -16.4705    4.9364 H        35   G    0.0972
   1125 H1'        25.1929  -18.6895    3.8092 H        35   G    0.2006
   1126 H1         21.9108  -13.4996    3.0391 H        35   G    0.3424
   1127 H8         23.1312  -18.5288    6.8335 H        35   G    0.1640
   1128 H21        23.4499  -13.3411    1.4785 H        35   G    0.4364
   1129 H22        24.7719  -14.4791    1.3465 H        35   G    0.4364
   1130 HO2'       28.2725  -17.5460    4.6618 H        35   G    0.4186
   1131 P          28.0640  -16.1180    7.9860 P.3      36   G    1.1662
   1132 C5'        28.8380  -14.9690    5.7610 C.3      36   G    0.0558
   1133 O5'        27.9200  -14.9830    6.8680 O.3      36   G   -0.4989
   1134 C4'        28.4810  -13.8900    4.7590 C.3      36   G    0.1065
   1135 O4'        27.1470  -14.1030    4.2370 O.3      36   G   -0.3548
   1136 C3'        28.4300  -12.4990    5.3260 C.3      36   G    0.2022
   1137 O3'        29.7160  -11.9880    5.4720 O.3      36   G   -0.5246
   1138 C2'        27.5780  -11.7590    4.2980 C.3      36   G    0.0670
   1139 O2'        28.2890  -11.3340    3.1510 O.3      36   G   -0.6139
   1140 C1'        26.5450  -12.8380    3.9460 C.3      36   G    0.0191
   1141 N1         22.3080  -10.1500    4.8080 N.am     36   G   -0.4787
   1142 C2         23.2920   -9.9670    3.8590 C.2      36   G    0.7657
   1143 N2         23.1750   -8.8990    3.0740 N.pl3    36   G   -0.9672
   1144 N3         24.3430  -10.7550    3.7150 N.2      36   G   -0.6323
   1145 C4         24.3580  -11.7440    4.6250 C.ar     36   G    0.1222
   1146 C5         23.4160  -12.0330    5.5880 C.ar     36   G    0.1744
   1147 C6         22.3000  -11.1860    5.7330 C.2      36   G    0.4770
   1148 O6         21.3840  -11.2890    6.5370 O.2      36   G   -0.5597
   1149 N7         23.7650  -13.1680    6.2990 N.ar     36   G   -0.5709
   1150 C8         24.8990  -13.5320    5.7650 C.ar     36   G    0.1374
   1151 N9         25.3110  -12.7190    4.7320 N.ar     36   G    0.0492
   1152 OP1        29.4850  -16.1620    8.4250 O.co2    36   G   -0.7760
   1153 OP2        26.9850  -15.9300    8.9890 O.co2    36   G   -0.7760
   1154 H5'        29.8441  -14.7841    6.1374 H        36   G    0.0679
   1155 H5''       28.8146  -15.9393    5.2650 H        36   G    0.0679
   1156 H4'        29.1955  -13.9151    3.9362 H        36   G    0.1174
   1157 H3'        27.9226  -12.5094    6.2907 H        36   G    0.0615
   1158 H2'        27.0835  -10.9082    4.7666 H        36   G    0.0972
   1159 H1'        26.3075  -12.7828    2.8836 H        36   G    0.2006
   1160 H1         21.5449   -9.4887    4.8318 H        36   G    0.3424
   1161 H8         25.4617  -14.3902    6.1015 H        36   G    0.1640
   1162 H21        22.3856   -8.2781    3.1804 H        36   G    0.4364
   1163 H22        23.8757   -8.7093    2.3717 H        36   G    0.4364
   1164 HO2'       28.9264  -10.6608    3.4003 H        36   G    0.4186
   1165 P          30.1730  -11.4810    6.9170 P.3      37   U    1.1662
   1166 C5'        30.1220   -9.0870    5.8770 C.3      37   U    0.0558
   1167 O5'        29.6740   -9.9610    6.9010 O.3      37   U   -0.4989
   1168 C4'        29.0590   -8.0750    5.4940 C.3      37   U    0.1065
   1169 O4'        27.8370   -8.7460    5.1200 O.3      37   U   -0.3548
   1170 C3'        28.6340   -7.1290    6.5960 C.3      37   U    0.2022
   1171 O3'        29.5820   -6.0830    6.7460 O.3      37   U   -0.5246
   1172 C2'        27.2960   -6.6470    6.0580 C.3      37   U    0.0670
   1173 O2'        27.4360   -5.7350    4.9880 O.3      37   U   -0.6139
   1174 C1'        26.7250   -7.9560    5.5270 C.3      37   U    0.0674
   1175 N1         25.8990   -8.7290    6.5350 N.am     37   U    0.0418
   1176 C2         24.6030   -8.3060    6.8230 C.2      37   U    0.4687
   1177 O2         24.1110   -7.3160    6.3320 O.2      37   U   -0.5477
   1178 N3         23.9030   -9.1140    7.7100 N.am     37   U   -0.3549
   1179 C4         24.3690  -10.2820    8.3220 C.2      37   U    0.5952
   1180 O4         23.6410  -10.9130    9.0780 O.2      37   U   -0.5761
   1181 C5         25.7120  -10.6730    7.9480 C.2      37   U   -0.3635
   1182 C6         26.4100   -9.9020    7.0910 C.2      37   U   -0.1126
   1183 OP1        31.6650  -11.5180    6.9710 O.co2    37   U   -0.7760
   1184 OP2        29.3820  -12.2110    7.9440 O.co2    37   U   -0.7760
   1185 H5'        31.0052   -8.5543    6.2296 H        37   U    0.0679
   1186 H5''       30.3876   -9.6745    4.9982 H        37   U    0.0679
   1187 H4'        29.4159   -7.4915    4.6453 H        37   U    0.1174
   1188 H3'        28.5009   -7.6662    7.5351 H        37   U    0.0615
   1189 H2'        26.6734   -6.2351    6.8523 H        37   U    0.0972
   1190 H1'        26.1069   -7.7424    4.6550 H        37   U    0.1824
   1191 H3         22.9609   -8.8287    7.9361 H        37   U    0.3154
   1192 H5         26.1501  -11.5737    8.3519 H        37   U    0.1811
   1193 H6         27.4109  -10.2061    6.8223 H        37   U    0.2188
   1194 HO2'       27.7956   -4.9079    5.3169 H        37   U    0.4186
   1195 P          30.2650   -5.8400    8.1730 P.3      38   A    1.1662
   1196 C5'        29.1550   -4.2960   10.0180 C.3      38   A    0.0558
   1197 O5'        29.0210   -5.3560    9.0540 O.3      38   A   -0.4989
   1198 C4'        28.0450   -4.3890   11.0530 C.3      38   A    0.1065
   1199 O4'        27.8710   -3.1250   11.7420 O.3      38   A   -0.3548
   1200 C3'        26.6740   -4.7470   10.4900 C.3      38   A    0.2022
   1201 O3'        26.0740   -5.6730   11.3380 O.3      38   A   -0.5246
   1202 C2'        25.9430   -3.4120   10.5230 C.3      38   A    0.0670
   1203 O2'        24.5370   -3.5550   10.5900 O.3      38   A   -0.6139
   1204 C1'        26.4970   -2.8660   11.8210 C.3      38   A    0.0394
   1205 N1         26.0820    0.8960   15.3090 N.ar     38   A   -0.7615
   1206 C2         26.3730   -0.4120   15.4290 C.ar     38   A    0.5875
   1207 N3         26.4910   -1.3350   14.4690 N.ar     38   A   -0.6997
   1208 C4         26.2690   -0.8000   13.2470 C.ar     38   A    0.3053
   1209 C5         25.9460    0.5140   12.9610 C.ar     38   A    0.0515
   1210 C6         25.8650    1.4090   14.0670 C.ar     38   A    0.7009
   1211 N6         25.6130    2.7250   13.9410 N.pl3    38   A   -0.9019
   1212 N7         25.7770    0.6900   11.5990 N.ar     38   A   -0.6073
   1213 C8         25.9990   -0.4930   11.1000 C.ar     38   A    0.2006
   1214 N9         26.2800   -1.4450   12.0390 N.ar     38   A   -0.0251
   1215 OP1        31.2350   -4.7250    8.0330 O.co2    38   A   -0.7760
   1216 OP2        30.7200   -7.1510    8.7020 O.co2    38   A   -0.7760
   1217 H5'        29.0928   -3.3347    9.5079 H        38   A    0.0679
   1218 H5''       30.1213   -4.3796   10.5155 H        38   A    0.0679
   1219 H4'        28.3227   -5.1450   11.7874 H        38   A    0.1174
   1220 H3'        26.7510   -5.1320    9.4732 H        38   A    0.0615
   1221 H2'        26.2331   -2.7858    9.6793 H        38   A    0.0972
   1222 H1'        26.0739   -3.4256   12.6552 H        38   A    0.2007
   1223 H2         26.5329   -0.7641   16.4374 H        38   A    0.0473
   1224 H8         25.9641   -0.7020   10.0410 H        38   A    0.1553
   1225 H61        25.5772    3.3132   14.7613 H        38   A    0.4115
   1226 H62        25.4596    3.1245   13.0261 H        38   A    0.4115
   1227 HO2'       24.1531   -3.3450    9.7355 H        38   A    0.4186
   1228 P          26.0460   -7.2150   10.9600 P.3      39   U    1.1662
   1229 C5'        24.4220   -9.0320   11.9100 C.3      39   U    0.0558
   1230 O5'        24.6800   -7.6650   11.6510 O.3      39   U   -0.4989
   1231 C4'        23.4310   -9.2090   13.0650 C.3      39   U    0.1065
   1232 O4'        23.8020   -8.3810   14.1890 O.3      39   U   -0.3548
   1233 C3'        21.9740   -8.8700   12.7640 C.3      39   U    0.2022
   1234 O3'        21.1660   -9.7750   13.4110 O.3      39   U   -0.5246
   1235 C2'        21.8020   -7.4890   13.3680 C.3      39   U    0.0670
   1236 O2'        20.4580   -7.2210   13.7240 O.3      39   U   -0.6139
   1237 C1'        22.6850   -7.6190   14.5980 C.3      39   U    0.0674
   1238 N1         23.1820   -6.3440   15.1210 N.am     39   U    0.0418
   1239 C2         22.6890   -5.8800   16.3250 C.2      39   U    0.4687
   1240 O2         21.8110   -6.4510   16.9590 O.2      39   U   -0.5477
   1241 N3         23.2700   -4.7150   16.7680 N.am     39   U   -0.3549
   1242 C4         24.2790   -3.9950   16.1480 C.2      39   U    0.5952
   1243 O4         24.7010   -2.9600   16.6670 O.2      39   U   -0.5761
   1244 C5         24.7480   -4.5570   14.9010 C.2      39   U   -0.3635
   1245 C6         24.2090   -5.6930   14.4540 C.2      39   U   -0.1126
   1246 OP1        27.1870   -7.8600   11.6480 O.co2    39   U   -0.7760
   1247 OP2        25.8980   -7.3490    9.4870 O.co2    39   U   -0.7760
   1248 H5'        25.3586   -9.5260   12.1686 H        39   U    0.0679
   1249 H5''       24.0106   -9.4940   11.0126 H        39   U    0.0679
   1250 H4'        23.4735  -10.2496   13.3867 H        39   U    0.1174
   1251 H3'        21.7815   -8.8613   11.6912 H        39   U    0.0615
   1252 H2'        22.1851   -6.7215   12.6954 H        39   U    0.0972
   1253 H1'        22.1456   -8.1511   15.3816 H        39   U    0.1824
   1254 H3         22.9235   -4.3433   17.6408 H        39   U    0.3154
   1255 H5         25.5258   -4.0629   14.3377 H        39   U    0.1811
   1256 H6         24.5870   -6.1219   13.5377 H        39   U    0.2188
   1257 HO2'       19.9014   -7.9520   13.4458 H        39   U    0.4186
   1258 P          20.3040  -10.7670   12.5630 P.3      40   A    1.1662
   1259 C5'        18.1740   -9.3440   12.2210 C.3      40   A    0.0558
   1260 O5'        19.3920   -9.7930   11.7080 O.3      40   A   -0.4989
   1261 C4'        17.1650   -9.1930   11.1090 C.3      40   A    0.1065
   1262 O4'        17.7070   -8.3490   10.0680 O.3      40   A   -0.3548
   1263 C3'        16.7490  -10.4940   10.4390 C.3      40   A    0.2022
   1264 O3'        15.3890  -10.4550   10.1630 O.3      40   A   -0.5246
   1265 C2'        17.5500  -10.5030    9.1540 C.3      40   A    0.0670
   1266 O2'        16.8840  -11.2210    8.1350 O.3      40   A   -0.6139
   1267 C1'        17.6090   -9.0060    8.8290 C.3      40   A    0.0394
   1268 N1         19.3710   -5.8450    5.1700 N.ar     40   A   -0.7615
   1269 C2         18.1630   -5.9590    5.7490 C.ar     40   A    0.5875
   1270 N3         17.7590   -6.8410    6.6730 N.ar     40   A   -0.6997
   1271 C4         18.7870   -7.6040    7.0860 C.ar     40   A    0.3053
   1272 C5         20.1050   -7.5320    6.6500 C.ar     40   A    0.0515
   1273 C6         20.3840   -6.6130    5.6220 C.ar     40   A    0.7009
   1274 N6         21.5830   -6.4640    5.0880 N.pl3    40   A   -0.9019
   1275 N7         20.8890   -8.4590    7.3050 N.ar     40   A   -0.6073
   1276 C8         20.0520   -9.0350    8.1460 C.ar     40   A    0.2006
   1277 N9         18.7560   -8.6030    8.0230 N.ar     40   A   -0.0251
   1278 OP1        19.4710  -11.5220   13.5250 O.co2    40   A   -0.7760
   1279 OP2        21.2190  -11.4770   11.6160 O.co2    40   A   -0.7760
   1280 H5'        17.8022  -10.0650   12.9491 H        40   A    0.0679
   1281 H5''       18.3207   -8.3805   12.7091 H        40   A    0.0679
   1282 H4'        16.2741   -8.7129   11.5139 H        40   A    0.1174
   1283 H3'        16.9980  -11.3529   11.0622 H        40   A    0.0615
   1284 H2'        18.5496  -10.9038    9.3220 H        40   A    0.0972
   1285 H1'        16.6884   -8.7052    8.3288 H        40   A    0.2007
   1286 H2         17.4197   -5.2449    5.4265 H        40   A    0.0473
   1287 H8         20.3591   -9.7791    8.8660 H        40   A    0.1553
   1288 H61        21.7279   -5.7864    4.3532 H        40   A    0.4115
   1289 H62        22.3548   -7.0277    5.4145 H        40   A    0.4115
   1290 HO2'       17.2543  -12.1044    8.0710 H        40   A    0.4186
   1291 P          14.3420  -10.9760   11.2400 P.3      41   G    1.1662
   1292 C5'        14.0960  -13.1120    9.7340 C.3      41   G    0.0558
   1293 O5'        13.4610  -12.0460   10.4120 O.3      41   G   -0.4989
   1294 C4'        13.3420  -13.5000    8.4750 C.3      41   G    0.1065
   1295 O4'        12.0220  -14.0160    8.8110 O.3      41   G   -0.3548
   1296 C3'        13.1290  -12.3850    7.4690 C.3      41   G    0.2022
   1297 O3'        14.2020  -12.4170    6.5120 O.3      41   G   -0.5246
   1298 C2'        11.7890  -12.7630    6.8290 C.3      41   G    0.0670
   1299 O2'        11.9320  -13.6470    5.7290 O.3      41   G   -0.6139
   1300 C1'        11.0420  -13.4430    7.9850 C.3      41   G    0.0191
   1301 N1          7.1670  -10.0710    8.2060 N.am     41   G   -0.4787
   1302 C2          7.6380  -10.7910    7.1270 C.2      41   G    0.7657
   1303 N2          7.0200  -10.5810    5.9590 N.pl3    41   G   -0.9672
   1304 N3          8.6300  -11.6860    7.1970 N.2      41   G   -0.6323
   1305 C4          9.1860  -11.7430    8.4310 C.ar     41   G    0.1222
   1306 C5          8.8200  -11.0330    9.5620 C.ar     41   G    0.1744
   1307 C6          7.6960  -10.1450    9.4980 C.2      41   G    0.4770
   1308 O6          7.1930   -9.4640   10.4140 O.2      41   G   -0.5597
   1309 N7          9.6210  -11.3940   10.6440 N.ar     41   G   -0.5709
   1310 C8         10.4440  -12.2790   10.1480 C.ar     41   G    0.1374
   1311 N9         10.2490  -12.5390    8.8150 N.ar     41   G    0.0492
   1312 OP1        13.4870   -9.8040   11.6090 O.co2    41   G   -0.7760
   1313 OP2        15.0870  -11.7150   12.2980 O.co2    41   G   -0.7760
   1314 H5'        15.1061  -12.8062    9.4614 H        41   G    0.0679
   1315 H5''       14.1510  -13.9750   10.3976 H        41   G    0.0679
   1316 H4'        13.8989  -14.2965    7.9814 H        41   G    0.1174
   1317 H3'        13.0701  -11.4150    7.9626 H        41   G    0.0615
   1318 H2'        11.2569  -11.8638    6.5185 H        41   G    0.0972
   1319 H1'        10.3986  -14.2283    7.5882 H        41   G    0.2006
   1320 H1          6.3870   -9.4482    8.0518 H        41   G    0.3424
   1321 H8         11.2102  -12.7632   10.7353 H        41   G    0.1640
   1322 H21         6.2621   -9.9159    5.9010 H        41   G    0.4364
   1323 H22         7.3114  -11.0876    5.1353 H        41   G    0.4364
   1324 HO2'       12.1344  -13.1426    4.9376 H        41   G    0.4186
   1325 P          14.6830  -11.0890    5.7340 P.3      42   U    1.1662
   1326 C5'        13.3800  -10.8860    3.4370 C.3      42   U    0.0558
   1327 O5'        13.4020  -10.6890    4.8510 O.3      42   U   -0.4989
   1328 C4'        12.4520   -9.8780    2.8000 C.3      42   U    0.1065
   1329 O4'        11.2760   -9.7320    3.6230 O.3      42   U   -0.3548
   1330 C3'        13.0520   -8.4770    2.6370 C.3      42   U    0.2022
   1331 O3'        12.8010   -7.9770    1.3350 O.3      42   U   -0.5246
   1332 C2'        12.3660   -7.6470    3.7110 C.3      42   U    0.0670
   1333 O2'        12.1640   -6.3110    3.3160 O.3      42   U   -0.6139
   1334 C1'        11.0300   -8.3650    3.8800 C.3      42   U    0.0674
   1335 N1         10.4690   -8.2210    5.2750 N.am     42   U    0.0418
   1336 C2          9.4210   -7.3420    5.5030 C.2      42   U    0.4687
   1337 O2          8.8440   -6.7340    4.6160 O.2      42   U   -0.5477
   1338 N3          9.0330   -7.2420    6.8160 N.am     42   U   -0.3549
   1339 C4          9.6350   -7.8320    7.9070 C.2      42   U    0.5952
   1340 O4          9.2400   -7.5740    9.0240 O.2      42   U   -0.5761
   1341 C5         10.7320   -8.7050    7.6040 C.2      42   U   -0.3635
   1342 C6         11.1120   -8.8540    6.3310 C.2      42   U   -0.1126
   1343 OP1        15.7990  -11.5050    4.8280 O.co2    42   U   -0.7760
   1344 OP2        14.8820  -10.0070    6.7300 O.co2    42   U   -0.7760
   1345 H5'        14.3857  -10.7567    3.0370 H        42   U    0.0679
   1346 H5''       13.0282  -11.8938    3.2162 H        42   U    0.0679
   1347 H4'        12.1512  -10.2477    1.8197 H        42   U    0.1174
   1348 H3'        14.1257   -8.5091    2.8218 H        42   U    0.0615
   1349 H2'        12.9357   -7.6848    4.6395 H        42   U    0.0972
   1350 H1'        10.3129   -7.9794    3.1553 H        42   U    0.1824
   1351 H3          8.2184   -6.6749    7.0030 H        42   U    0.3154
   1352 H5         11.2441   -9.2348    8.3936 H        42   U    0.1811
   1353 H6         11.9548   -9.4937    6.1145 H        42   U    0.2188
   1354 HO2'       13.0132   -5.8749    3.2145 H        42   U    0.4186
   1355 P          13.7100   -8.4690    0.1010 P.3      43   C    1.1662
   1356 C5'        15.3270   -6.4690    0.5100 C.3      43   C    0.0558
   1357 O5'        14.4430   -7.1240   -0.3800 O.3      43   C   -0.4989
   1358 C4'        16.7240   -6.2900   -0.0720 C.3      43   C    0.1065
   1359 O4'        17.6070   -5.9030    1.0070 O.3      43   C   -0.3548
   1360 C3'        17.3480   -7.5220   -0.7240 C.3      43   C    0.2022
   1361 O3'        17.2630   -7.4060   -2.1300 O.3      43   C   -0.5246
   1362 C2'        18.8020   -7.4830   -0.2730 C.3      43   C    0.0670
   1363 O2'        19.6500   -6.8370   -1.2010 O.3      43   C   -0.6139
   1364 C1'        18.7520   -6.7110    1.0380 C.3      43   C    0.0066
   1365 N1         18.7220   -7.6050    2.2630 N.am     43   C   -0.0484
   1366 C2         19.8940   -8.2720    2.6590 C.2      43   C    0.7538
   1367 O2         20.9350   -8.0610    2.0400 O.2      43   C   -0.6252
   1368 N3         19.8440   -9.1350    3.7150 N.2      43   C   -0.7584
   1369 C4         18.6850   -9.3510    4.3460 C.2      43   C    0.8185
   1370 N4         18.6800  -10.1820    5.3810 N.pl3    43   C   -0.9530
   1371 C5         17.4810   -8.7040    3.9510 C.2      43   C   -0.5215
   1372 C6         17.5440   -7.8370    2.9270 C.2      43   C    0.0053
   1373 OP1        12.7880   -8.9460   -0.9740 O.co2    43   C   -0.7760
   1374 OP2        14.7680   -9.3960    0.6260 O.co2    43   C   -0.7760
   1375 H5'        14.9192   -5.4860    0.7455 H        43   C    0.0679
   1376 H5''       15.3989   -7.0511    1.4288 H        43   C    0.0679
   1377 H4'        16.6956   -5.4841   -0.8054 H        43   C    0.1174
   1378 H3'        16.8590   -8.4332   -0.3794 H        43   C    0.0615
   1379 H2'        19.1589   -8.4966   -0.0907 H        43   C    0.0972
   1380 H1'        19.6303   -6.0682    1.0974 H        43   C    0.2029
   1381 H5         16.5481   -8.9032    4.4573 H        43   C    0.1928
   1382 H6         16.6508   -7.3128    2.6207 H        43   C    0.1958
   1383 H41        19.5350  -10.6369    5.6676 H        43   C    0.4234
   1384 H42        17.8212  -10.3595    5.8820 H        43   C    0.4234
   1385 HO2'       20.3982   -7.4048   -1.3995 H        43   C    0.4186
   1386 P          17.2510   -8.7100   -3.0670 P.3      44   C    1.1662
   1387 C5'        19.7580   -8.7300   -3.7510 C.3      44   C    0.0558
   1388 O5'        18.7360   -9.2700   -2.9480 O.3      44   C   -0.4989
   1389 C4'        21.0610   -9.4190   -3.4640 C.3      44   C    0.1065
   1390 O4'        21.4140   -9.2170   -2.0810 O.3      44   C   -0.3548
   1391 C3'        21.0140  -10.9170   -3.6080 C.3      44   C    0.2022
   1392 O3'        21.1640  -11.2860   -4.9610 O.3      44   C   -0.5246
   1393 C2'        22.2000  -11.3520   -2.7630 C.3      44   C    0.0670
   1394 O2'        23.4300  -11.3090   -3.4740 O.3      44   C   -0.6139
   1395 C1'        22.1810  -10.3280   -1.6260 C.3      44   C    0.0066
   1396 N1         21.5860  -10.8790   -0.3120 N.am     44   C   -0.0484
   1397 C2         22.4420  -11.4340    0.6840 C.2      44   C    0.7538
   1398 O2         23.6600  -11.4300    0.5120 O.2      44   C   -0.6252
   1399 N3         21.8940  -11.9050    1.8400 N.2      44   C   -0.7584
   1400 C4         20.5620  -11.8380    2.0340 C.2      44   C    0.8185
   1401 N4         20.0740  -12.3080    3.1830 N.pl3    44   C   -0.9530
   1402 C5         19.6760  -11.2860    1.0480 C.2      44   C   -0.5215
   1403 C6         20.2200  -10.8300   -0.0990 C.2      44   C    0.0053
   1404 OP1        17.0180   -8.2450   -4.4600 O.co2    44   C   -0.7760
   1405 OP2        16.3410   -9.7160   -2.4630 O.co2    44   C   -0.7760
   1406 H5'        19.8589   -7.6658   -3.5379 H        44   C    0.0679
   1407 H5''       19.5015   -8.8654   -4.8017 H        44   C    0.0679
   1408 H4'        21.8419   -9.0119   -4.1064 H        44   C    0.1174
   1409 H3'        20.0842  -11.3144   -3.2009 H        44   C    0.0615
   1410 H2'        22.0308  -12.3536   -2.3677 H        44   C    0.0972
   1411 H1'        23.2016   -9.9955   -1.4365 H        44   C    0.2029
   1412 H5         18.6107  -11.2376    1.2189 H        44   C    0.1928
   1413 H6         19.5780  -10.4195   -0.8643 H        44   C    0.1958
   1414 H41        20.6981  -12.6972    3.8751 H        44   C    0.4234
   1415 H42        19.0803  -12.2747    3.3609 H        44   C    0.4234
   1416 HO2'       24.1535  -11.5043   -2.8740 H        44   C    0.4186
   1417 P          20.4520  -12.6100   -5.5110 P.3      45   A    1.1662
   1418 C5'        22.4940  -14.1690   -4.9330 C.3      45   A    0.0558
   1419 O5'        21.1400  -13.7830   -4.6540 O.3      45   A   -0.4989
   1420 C4'        23.0250  -15.1460   -3.9020 C.3      45   A    0.1065
   1421 O4'        23.0450  -14.5410   -2.5920 O.3      45   A   -0.3548
   1422 C3'        22.2060  -16.4030   -3.7100 C.3      45   A    0.2022
   1423 O3'        22.4710  -17.3240   -4.7430 O.3      45   A   -0.5246
   1424 C2'        22.7160  -16.8880   -2.3620 C.3      45   A    0.0670
   1425 O2'        23.9540  -17.5800   -2.4460 O.3      45   A   -0.6139
   1426 C1'        22.8830  -15.5590   -1.6060 C.3      45   A    0.0394
   1427 N1         19.8610  -16.8710    2.4060 N.ar     45   A   -0.7615
   1428 C2         20.9900  -17.4250    1.9200 C.ar     45   A    0.5875
   1429 N3         21.7310  -17.0400    0.8730 N.ar     45   A   -0.6997
   1430 C4         21.2210  -15.9280    0.3040 C.ar     45   A    0.3053
   1431 C5         20.0830  -15.2370    0.7050 C.ar     45   A    0.0515
   1432 C6         19.3840  -15.7430    1.8220 C.ar     45   A    0.7009
   1433 N6         18.2710  -15.1810    2.3020 N.pl3    45   A   -0.9019
   1434 N7         19.8470  -14.1560   -0.1220 N.ar     45   A   -0.6073
   1435 C8         20.8570  -14.1750   -0.9640 C.ar     45   A    0.2006
   1436 N9         21.7220  -15.2220   -0.7770 N.ar     45   A   -0.0251
   1437 OP1        20.8370  -12.7520   -6.9370 O.co2    45   A   -0.7760
   1438 OP2        19.0240  -12.5550   -5.1400 O.co2    45   A   -0.7760
   1439 H5'        22.5314  -14.6386   -5.9160 H        45   A    0.0679
   1440 H5''       23.1241  -13.2796   -4.9388 H        45   A    0.0679
   1441 H4'        24.0421  -15.4272   -4.1751 H        45   A    0.1174
   1442 H3'        21.1424  -16.1696   -3.6615 H        45   A    0.0615
   1443 H2'        21.9658  -17.5103   -1.8741 H        45   A    0.0972
   1444 H1'        23.7749  -15.6055   -0.9812 H        45   A    0.2007
   1445 H2         21.3452  -18.2983    2.4468 H        45   A    0.0473
   1446 H8         20.9931  -13.4311   -1.7351 H        45   A    0.1553
   1447 H61        17.8017  -15.5894    3.0977 H        45   A    0.4115
   1448 H62        17.8989  -14.3478    1.8692 H        45   A    0.4115
   1449 HO2'       23.8284  -18.4051   -2.9205 H        45   A    0.4186
   1450 P          21.2890  -18.2260   -5.3280 P.3      46   C    1.1662
   1451 C5'        22.2640  -20.3020   -3.9930 C.3      46   C    0.0558
   1452 O5'        21.1650  -19.4040   -4.2300 O.3      46   C   -0.4989
   1453 C4'        22.1620  -21.0060   -2.6380 C.3      46   C    0.1065
   1454 O4'        21.9790  -20.0440   -1.5660 O.3      46   C   -0.3548
   1455 C3'        20.9990  -21.9590   -2.4560 C.3      46   C    0.2022
   1456 O3'        21.2450  -23.1970   -3.1050 O.3      46   C   -0.5246
   1457 C2'        20.9900  -22.1060   -0.9390 C.3      46   C    0.0670
   1458 O2'        22.0180  -22.9530   -0.4640 O.3      46   C   -0.6139
   1459 C1'        21.2500  -20.6630   -0.4990 C.3      46   C    0.0066
   1460 N1         19.9580  -19.8650   -0.2150 N.am     46   C   -0.0484
   1461 C2         19.1570  -20.1780    0.9170 C.2      46   C    0.7538
   1462 O2         19.5050  -21.0800    1.6840 O.2      46   C   -0.6252
   1463 N3         18.0210  -19.4640    1.1370 N.2      46   C   -0.7584
   1464 C4         17.6540  -18.4960    0.2870 C.2      46   C    0.8185
   1465 N4         16.5210  -17.8250    0.5480 N.pl3    46   C   -0.9530
   1466 C5         18.4440  -18.1590   -0.8630 C.2      46   C   -0.5215
   1467 C6         19.5750  -18.8560   -1.0700 C.2      46   C    0.0053
   1468 OP1        21.7520  -18.7760   -6.6230 O.co2    46   C   -0.7760
   1469 OP2        20.0310  -17.4460   -5.2790 O.co2    46   C   -0.7760
   1470 H5'        22.2747  -21.0568   -4.7793 H        46   C    0.0679
   1471 H5''       23.1963  -19.7385   -4.0302 H        46   C    0.0679
   1472 H4'        23.0887  -21.5516   -2.4600 H        46   C    0.1174
   1473 H3'        20.0700  -21.5118   -2.8095 H        46   C    0.0615
   1474 H2'        20.0156  -22.4472   -0.5894 H        46   C    0.0972
   1475 H1'        21.8689  -20.6701    0.3982 H        46   C    0.2029
   1476 H5         18.1405  -17.3729   -1.5385 H        46   C    0.1928
   1477 H6         20.1945  -18.6201   -1.9226 H        46   C    0.1958
   1478 H41        15.9707  -18.0604    1.3615 H        46   C    0.4234
   1479 H42        16.2189  -17.0848   -0.0692 H        46   C    0.4234
   1480 HO2'       21.9371  -23.8163   -0.8761 H        46   C    0.4186
   1481 P          20.0220  -24.0400   -3.7140 P.3      47   G    1.1662
   1482 C5'        19.9150  -25.6290   -1.5850 C.3      47   G    0.0558
   1483 O5'        19.2840  -24.6360   -2.4150 O.3      47   G   -0.4989
   1484 C4'        19.0080  -26.0310   -0.4240 C.3      47   G    0.1065
   1485 O4'        18.8190  -24.9000    0.4600 O.3      47   G   -0.3548
   1486 C3'        17.6110  -26.4510   -0.8310 C.3      47   G    0.2022
   1487 O3'        17.5720  -27.8170   -1.0810 O.3      47   G   -0.5246
   1488 C2'        16.7540  -26.0670    0.3640 C.3      47   G    0.0670
   1489 O2'        16.7010  -27.0810    1.3470 O.3      47   G   -0.6139
   1490 C1'        17.4690  -24.8260    0.8950 C.3      47   G    0.0191
   1491 N1         14.4100  -20.8320    1.8880 N.am     47   G   -0.4787
   1492 C2         14.7460  -21.8840    2.7070 C.2      47   G    0.7657
   1493 N2         14.2300  -21.8490    3.9410 N.pl3    47   G   -0.9672
   1494 N3         15.5710  -22.8780    2.3530 N.2      47   G   -0.6323
   1495 C4         16.0290  -22.7270    1.0790 C.ar     47   G    0.1222
   1496 C5         15.7250  -21.7230    0.1780 C.ar     47   G    0.1744
   1497 C6         14.8520  -20.6740    0.5750 C.2      47   G    0.4770
   1498 O6         14.4900  -19.6840   -0.0840 O.2      47   G   -0.5597
   1499 N7         16.3670  -21.9350   -1.0310 N.ar     47   G   -0.5709
   1500 C8         17.0370  -23.0350   -0.8500 C.ar     47   G    0.1374
   1501 N9         16.8930  -23.5720    0.4080 N.ar     47   G    0.0492
   1502 OP1        20.6030  -25.1540   -4.4990 O.co2    47   G   -0.7760
   1503 OP2        19.0850  -23.0850   -4.3670 O.co2    47   G   -0.7760
   1504 H5'        20.1333  -26.5104   -2.1879 H        47   G    0.0679
   1505 H5''       20.8470  -25.2257   -1.1889 H        47   G    0.0679
   1506 H4'        19.4774  -26.8432    0.1310 H        47   G    0.1174
   1507 H3'        17.2941  -25.8974   -1.7149 H        47   G    0.0615
   1508 H2'        15.7470  -25.8087    0.0363 H        47   G    0.0972
   1509 H1'        17.4418  -24.8345    1.9846 H        47   G    0.2006
   1510 H1         13.7985  -20.1220    2.2649 H        47   G    0.3424
   1511 H8         17.6499  -23.4852   -1.6168 H        47   G    0.1640
   1512 H21        13.6213  -21.0902    4.2126 H        47   G    0.4364
   1513 H22        14.4492  -22.5815    4.6010 H        47   G    0.4364
   1514 HO2'       16.2120  -26.7622    2.1092 H        47   G    0.4186
   1515 P          16.6460  -28.3610   -2.2640 P.3      48   A    1.1662
   1516 C5'        15.0140  -29.3920   -0.4810 C.3      48   A    0.0558
   1517 O5'        15.1970  -28.4850   -1.5680 O.3      48   A   -0.4989
   1518 C4'        13.8110  -29.0350    0.3670 C.3      48   A    0.1065
   1519 O4'        13.9170  -27.6870    0.8630 O.3      48   A   -0.3548
   1520 C3'        12.4920  -29.0850   -0.3460 C.3      48   A    0.2022
   1521 O3'        12.0310  -30.3960   -0.3430 O.3      48   A   -0.5246
   1522 C2'        11.6230  -28.2060    0.5320 C.3      48   A    0.0670
   1523 O2'        11.0440  -28.9310    1.6020 O.3      48   A   -0.6139
   1524 C1'        12.6200  -27.1630    1.0580 C.3      48   A    0.0394
   1525 N1         11.0750  -22.2250    1.3120 N.ar     48   A   -0.7615
   1526 C2         11.0180  -23.2260    2.2050 C.ar     48   A    0.5875
   1527 N3         11.4300  -24.4950    2.0750 N.ar     48   A   -0.6997
   1528 C4         11.9910  -24.7000    0.8630 C.ar     48   A    0.3053
   1529 C5         12.1400  -23.7600   -0.1530 C.ar     48   A    0.0515
   1530 C6         11.6550  -22.4540    0.1100 C.ar     48   A    0.7009
   1531 N6         11.7110  -21.4600   -0.7760 N.pl3    48   A   -0.9019
   1532 N7         12.7100  -24.3360   -1.2770 N.ar     48   A   -0.6073
   1533 C8         12.9360  -25.5790   -0.9110 C.ar     48   A    0.2006
   1534 N9         12.5330  -25.8700    0.3720 N.ar     48   A   -0.0251
   1535 OP1        17.1430  -29.7140   -2.6250 O.co2    48   A   -0.7760
   1536 OP2        16.5610  -27.3070   -3.3060 O.co2    48   A   -0.7760
   1537 H5'        14.8751  -30.3961   -0.8817 H        48   A    0.0679
   1538 H5''       15.9060  -29.3800    0.1454 H        48   A    0.0679
   1539 H4'        13.7717  -29.7156    1.2175 H        48   A    0.1174
   1540 H3'        12.5685  -28.6893   -1.3587 H        48   A    0.0615
   1541 H2'        10.8476  -27.7236   -0.0631 H        48   A    0.0972
   1542 H1'        12.4516  -27.0137    2.1245 H        48   A    0.2007
   1543 H2         10.5799  -22.9741    3.1595 H        48   A    0.0473
   1544 H8         13.3976  -26.3077   -1.5609 H        48   A    0.1553
   1545 H61        11.3374  -20.5517   -0.5403 H        48   A    0.4115
   1546 H62        12.1271  -21.6150   -1.6832 H        48   A    0.4115
   1547 HO2'       10.4249  -29.5767    1.2536 H        48   A    0.4186
   1548 P          11.7570  -31.1450   -1.7180 P.3      49   A    1.1662
   1549 C5'         9.1930  -30.6610   -1.3130 C.3      49   A    0.0558
   1550 O5'        10.3350  -30.5450   -2.1710 O.3      49   A   -0.4989
   1551 C4'         7.9750  -29.9670   -1.9070 C.3      49   A    0.1065
   1552 O4'         8.0690  -28.5360   -1.6800 O.3      49   A   -0.3548
   1553 C3'         7.7990  -30.1280   -3.4120 C.3      49   A    0.2022
   1554 O3'         6.9990  -31.2510   -3.6860 O.3      49   A   -0.5246
   1555 C2'         7.0960  -28.8380   -3.8050 C.3      49   A    0.0670
   1556 O2'         5.7070  -28.8810   -3.5730 O.3      49   A   -0.6139
   1557 C1'         7.7550  -27.8340   -2.8750 C.3      49   A    0.0394
   1558 N1          9.7470  -24.6240   -6.4120 N.ar     49   A   -0.7615
   1559 C2          8.4750  -24.9580   -6.1180 C.ar     49   A    0.5875
   1560 N3          8.0280  -25.8120   -5.1910 N.ar     49   A   -0.6997
   1561 C4          9.0540  -26.3490   -4.4900 C.ar     49   A    0.3053
   1562 C5         10.4080  -26.0940   -4.6690 C.ar     49   A    0.0515
   1563 C6         10.7540  -25.1740   -5.6900 C.ar     49   A    0.7009
   1564 N6         12.0150  -24.8390   -5.9840 N.pl3    49   A   -0.9019
   1565 N7         11.1670  -26.8250   -3.7730 N.ar     49   A   -0.6073
   1566 C8         10.2760  -27.4910   -3.0770 C.ar     49   A    0.2006
   1567 N9          8.9780  -27.2360   -3.4390 N.ar     49   A   -0.0251
   1568 OP1        11.6140  -32.5890   -1.4210 O.co2    49   A   -0.7760
   1569 OP2        12.7820  -30.7040   -2.6980 O.co2    49   A   -0.7760
   1570 H5'         8.9638  -31.7170   -1.1697 H        49   A    0.0679
   1571 H5''        9.4246  -30.2115   -0.3474 H        49   A    0.0679
   1572 H4'         7.0812  -30.3421   -1.4084 H        49   A    0.1174
   1573 H3'         8.7657  -30.2099   -3.9090 H        49   A    0.0615
   1574 H2'         7.3034  -28.5900   -4.8460 H        49   A    0.0972
   1575 H1'         7.0436  -27.0406   -2.6456 H        49   A    0.2007
   1576 H2          7.7147  -24.4707   -6.7104 H        49   A    0.0473
   1577 H8         10.5415  -28.1795   -2.2884 H        49   A    0.1553
   1578 H61        12.2027  -24.1819   -6.7277 H        49   A    0.4115
   1579 H62        12.7796  -25.2431   -5.4623 H        49   A    0.4115
   1580 HO2'        5.3026  -29.5184   -4.1662 H        49   A    0.4186
   1581 P           7.3060  -32.1660   -4.9640 P.3      50   A    1.1662
   1582 C5'         5.7140  -30.8970   -6.6140 C.3      50   A    0.0558
   1583 O5'         7.0380  -31.1850   -6.1980 O.3      50   A   -0.4989
   1584 C4'         5.7210  -29.7910   -7.6430 C.3      50   A    0.1065
   1585 O4'         6.4570  -28.6490   -7.1310 O.3      50   A   -0.3548
   1586 C3'         6.4490  -30.1340   -8.9120 C.3      50   A    0.2022
   1587 O3'         5.6350  -30.9010   -9.7590 O.3      50   A   -0.5246
   1588 C2'         6.7750  -28.7610   -9.4820 C.3      50   A    0.0670
   1589 O2'         5.6880  -28.1700  -10.1680 O.3      50   A   -0.6139
   1590 C1'         7.1000  -27.9760   -8.2090 C.3      50   A    0.0394
   1591 N1         11.6440  -25.9680   -9.6030 N.ar     50   A   -0.7615
   1592 C2         10.3920  -25.7420  -10.0430 C.ar     50   A    0.5875
   1593 N3          9.2460  -26.2930   -9.6300 N.ar     50   A   -0.6997
   1594 C4          9.4700  -27.1760   -8.6320 C.ar     50   A    0.3053
   1595 C5         10.7010  -27.5260   -8.0860 C.ar     50   A    0.0515
   1596 C6         11.8370  -26.8630   -8.6000 C.ar     50   A    0.7009
   1597 N6         13.0780  -27.0950   -8.1670 N.pl3    50   A   -0.9019
   1598 N7         10.5460  -28.4680   -7.0820 N.ar     50   A   -0.6073
   1599 C8          9.2450  -28.6800   -7.0500 C.ar     50   A    0.2006
   1600 N9          8.5340  -27.9140   -7.9420 N.ar     50   A   -0.0251
   1601 OP1         6.3000  -33.2670   -4.9840 O.co2    50   A   -0.7760
   1602 OP2         8.7500  -32.4880   -4.9600 O.co2    50   A   -0.7760
   1603 H5'         5.1258  -30.5830   -5.7517 H        50   A    0.0679
   1604 H5''        5.2689  -31.7921   -7.0485 H        50   A    0.0679
   1605 H4'         4.6973  -29.4961   -7.8738 H        50   A    0.1174
   1606 H3'         7.3679  -30.6740   -8.6838 H        50   A    0.0615
   1607 H2'         7.6500  -28.8154  -10.1298 H        50   A    0.0972
   1608 H1'         6.7025  -26.9647   -8.2945 H        50   A    0.2007
   1609 H2         10.3009  -25.0167  -10.8380 H        50   A    0.0473
   1610 H8          8.7804  -29.3912   -6.3832 H        50   A    0.1553
   1611 H61        13.8569  -26.5998   -8.5772 H        50   A    0.4115
   1612 H62        13.2382  -27.7657   -7.4291 H        50   A    0.4115
   1613 HO2'        5.4981  -28.6743  -10.9625 H        50   A    0.4186
   1614 P           6.2980  -32.1160  -10.5620 P.3      51   G    1.1662
   1615 C5'         6.3250  -30.6350  -12.7630 C.3      51   G    0.0558
   1616 O5'         7.0650  -31.3660  -11.7670 O.3      51   G   -0.4989
   1617 C4'         7.2200  -29.6960  -13.5730 C.3      51   G    0.1065
   1618 O4'         7.9510  -28.8040  -12.6990 O.3      51   G   -0.3548
   1619 C3'         8.3230  -30.3450  -14.3950 C.3      51   G    0.2022
   1620 O3'         7.8170  -30.9490  -15.5820 O.3      51   G   -0.5246
   1621 C2'         9.2000  -29.1370  -14.7040 C.3      51   G    0.0670
   1622 O2'         8.7590  -28.3770  -15.8150 O.3      51   G   -0.6139
   1623 C1'         9.0930  -28.3230  -13.4070 C.3      51   G    0.0191
   1624 N1         14.1420  -27.6740  -13.2380 N.am     51   G   -0.4787
   1625 C2         13.2410  -27.3410  -14.2360 C.2      51   G    0.7657
   1626 N2         13.7470  -26.7580  -15.3380 N.pl3    51   G   -0.9672
   1627 N3         11.9290  -27.5420  -14.1450 N.2      51   G   -0.6323
   1628 C4         11.5750  -28.1240  -12.9610 C.ar     51   G    0.1222
   1629 C5         12.3910  -28.5040  -11.9120 C.ar     51   G    0.1744
   1630 C6         13.7950  -28.2560  -12.0070 C.2      51   G    0.4770
   1631 O6         14.6790  -28.5040  -11.1720 O.2      51   G   -0.5597
   1632 N7         11.6480  -29.1040  -10.9060 N.ar     51   G   -0.5709
   1633 C8         10.4190  -29.0580  -11.3480 C.ar     51   G    0.1374
   1634 N9         10.2970  -28.4500  -12.5780 N.ar     51   G    0.0492
   1635 OP1         5.1910  -32.9510  -11.1030 O.co2    51   G   -0.7760
   1636 OP2         7.3380  -32.7340   -9.6920 O.co2    51   G   -0.7760
   1637 H5'         5.8552  -31.3456  -13.4431 H        51   G    0.0679
   1638 H5''        5.5493  -30.0490  -12.2701 H        51   G    0.0679
   1639 H4'         6.5931  -29.1003  -14.2365 H        51   G    0.1174
   1640 H3'         8.8699  -31.0736  -13.7965 H        51   G    0.0615
   1641 H2'        10.2308  -29.4562  -14.8581 H        51   G    0.0972
   1642 H1'         8.9413  -27.2729  -13.6567 H        51   G    0.2006
   1643 H1         15.1195  -27.4847  -13.4075 H        51   G    0.3424
   1644 H8          9.5786  -29.4587  -10.8007 H        51   G    0.1640
   1645 H21        14.7407  -26.5928  -15.4109 H        51   G    0.4364
   1646 H22        13.1331  -26.4856  -16.0923 H        51   G    0.4364
   1647 HO2'        8.8343  -28.9040  -16.6139 H        51   G    0.4186
   1648 P           8.5800  -32.2030  -16.2340 P.3      52   C    1.1662
   1649 C5'        10.0050  -30.9500  -18.0710 C.3      52   C    0.0558
   1650 O5'         9.9480  -31.5710  -16.7830 O.3      52   C   -0.4989
   1651 C4'        11.4340  -30.5860  -18.4330 C.3      52   C    0.1065
   1652 O4'        11.9660  -29.6710  -17.4340 O.3      52   C   -0.3548
   1653 C3'        12.4050  -31.7550  -18.4380 C.3      52   C    0.2022
   1654 O3'        12.3910  -32.4300  -19.6770 O.3      52   C   -0.5246
   1655 C2'        13.7430  -31.0810  -18.1470 C.3      52   C    0.0670
   1656 O2'        14.3500  -30.5020  -19.2910 O.3      52   C   -0.6139
   1657 C1'        13.3190  -30.0060  -17.1390 C.3      52   C    0.0066
   1658 N1         13.4330  -30.4770  -15.6790 N.am     52   C   -0.0484
   1659 C2         14.6860  -30.4400  -15.0310 C.2      52   C    0.7538
   1660 O2         15.6610  -29.9810  -15.6270 O.2      52   C   -0.6252
   1661 N3         14.7840  -30.9110  -13.7550 N.2      52   C   -0.7584
   1662 C4         13.7120  -31.4480  -13.1510 C.2      52   C    0.8185
   1663 N4         13.8540  -31.8920  -11.9000 N.pl3    52   C   -0.9530
   1664 C5         12.4360  -31.5050  -13.7890 C.2      52   C   -0.5215
   1665 C6         12.3460  -31.0310  -15.0400 C.2      52   C    0.0053
   1666 OP1         7.7730  -32.6720  -17.3850 O.co2    52   C   -0.7760
   1667 OP2         8.9280  -33.1510  -15.1470 O.co2    52   C   -0.7760
   1668 H5'         9.6124  -31.6402  -18.8177 H        52   C    0.0679
   1669 H5''        9.3956  -30.0463  -18.0614 H        52   C    0.0679
   1670 H4'        11.4469  -30.1017  -19.4094 H        52   C    0.1174
   1671 H3'        12.1558  -32.4482  -17.6346 H        52   C    0.0615
   1672 H2'        14.4259  -31.7886  -17.6768 H        52   C    0.0972
   1673 H1'        13.9425  -29.1227  -17.2776 H        52   C    0.2029
   1674 H5         11.5747  -31.9149  -13.2825 H        52   C    0.1928
   1675 H6         11.3999  -31.0848  -15.5582 H        52   C    0.1958
   1676 H41        14.7528  -31.8349  -11.4427 H        52   C    0.4234
   1677 H42        13.0626  -32.2850  -11.4108 H        52   C    0.4234
   1678 HO2'       14.6051  -31.1954  -19.9040 H        52   C    0.4186
   1679 P          12.6310  -34.0120  -19.7130 P.3      53   U    1.1662
   1680 C5'        14.9640  -34.7650  -20.6620 C.3      53   U    0.0558
   1681 O5'        14.2270  -34.1170  -19.6270 O.3      53   U   -0.4989
   1682 C4'        16.4590  -34.5750  -20.4790 C.3      53   U    0.1065
   1683 O4'        16.7060  -33.4360  -19.6040 O.3      53   U   -0.3548
   1684 C3'        17.1820  -35.7540  -19.8330 C.3      53   U    0.2022
   1685 O3'        17.5690  -36.7100  -20.8260 O.3      53   U   -0.6541
   1686 C2'        18.3880  -35.0840  -19.1710 C.3      53   U    0.0670
   1687 O2'        19.5000  -34.9520  -20.0450 O.3      53   U   -0.6139
   1688 C1'        17.8280  -33.6970  -18.7730 C.3      53   U    0.0674
   1689 N1         17.4010  -33.6000  -17.3060 N.am     53   U    0.0418
   1690 C2         18.3710  -33.4120  -16.3270 C.2      53   U    0.4687
   1691 O2         19.5580  -33.2710  -16.5750 O.2      53   U   -0.5477
   1692 N3         17.8850  -33.3610  -15.0300 N.am     53   U   -0.3549
   1693 C4         16.5630  -33.4810  -14.6220 C.2      53   U    0.5952
   1694 O4         16.2920  -33.4390  -13.4300 O.2      53   U   -0.5761
   1695 C5         15.6100  -33.6800  -15.6910 C.2      53   U   -0.3635
   1696 C6         16.0520  -33.7210  -16.9630 C.2      53   U   -0.1126
   1697 OP1        12.1690  -34.5060  -21.0310 O.co2    53   U   -0.7760
   1698 OP2        12.0630  -34.6000  -18.4730 O.co2    53   U   -0.7760
   1699 H5'        14.7373  -35.8310  -20.6447 H        53   U    0.0679
   1700 H5''       14.6663  -34.3517  -21.6256 H        53   U    0.0679
   1701 H4'        16.9098  -34.3759  -21.4512 H        53   U    0.1174
   1702 H3'        16.5475  -36.2230  -19.0809 H        53   U    0.0615
   1703 H2'        18.6790  -35.6384  -18.2788 H        53   U    0.0972
   1704 H1'        18.5905  -32.9425  -18.9666 H        53   U    0.1824
   1705 H3         18.5688  -33.2209  -14.3000 H        53   U    0.3154
   1706 H5         14.5584  -33.7942  -15.4728 H        53   U    0.1811
   1707 H6         15.3296  -33.8536  -17.7548 H        53   U    0.2188
   1708 HO3'       18.0218  -37.4442  -20.4047 H        53   U    0.4376
   1709 HO2'       19.8298  -35.8230  -20.2778 H        53   U    0.4186
   1710 C5'        24.9890  -27.0550  -10.6670 C.3      54   G    0.0558
   1711 O5'        24.1110  -26.7050   -9.5820 O.3      54   G   -0.6223
   1712 C4'        24.2480  -27.1540  -12.0030 C.3      54   G    0.1065
   1713 O4'        23.6000  -28.4390  -12.1200 O.3      54   G   -0.3548
   1714 C3'        23.1080  -26.1840  -12.2110 C.3      54   G    0.2022
   1715 O3'        23.5770  -24.9080  -12.5380 O.3      54   G   -0.5246
   1716 C2'        22.3590  -26.8360  -13.3620 C.3      54   G    0.0670
   1717 O2'        22.9230  -26.5540  -14.6270 O.3      54   G   -0.6139
   1718 C1'        22.5010  -28.3260  -13.0180 C.3      54   G    0.0191
   1719 N1         17.6670  -29.7260  -13.7540 N.am     54   G   -0.4787
   1720 C2         18.6150  -29.2960  -14.6650 C.2      54   G    0.7657
   1721 N2         18.2310  -29.2120  -15.9430 N.pl3    54   G   -0.9672
   1722 N3         19.8600  -28.9910  -14.3470 N.2      54   G   -0.6323
   1723 C4         20.0920  -29.1240  -13.0200 C.ar     54   G    0.1222
   1724 C5         19.2140  -29.5170  -12.0260 C.ar     54   G    0.1744
   1725 C6         17.8920  -29.8800  -12.3830 C.2      54   G    0.4770
   1726 O6         16.9850  -30.2900  -11.6480 O.2      54   G   -0.5597
   1727 N7         19.8340  -29.5080  -10.7900 N.ar     54   G   -0.5709
   1728 C8         21.0510  -29.1010  -11.0500 C.ar     54   G    0.1374
   1729 N9         21.2900  -28.8890  -12.3950 N.ar     54   G    0.0492
   1730 H5'        25.7636  -26.2927  -10.7512 H        54   G    0.0679
   1731 H5''       25.4576  -28.0147  -10.4490 H        54   G    0.0679
   1732 H4'        24.9644  -27.0412  -12.8167 H        54   G    0.1174
   1733 H3'        22.4778  -26.1415  -11.3226 H        54   G    0.0615
   1734 H2'        21.3093  -26.5429  -13.3432 H        54   G    0.0972
   1735 H1'        22.7254  -28.8823  -13.9281 H        54   G    0.2006
   1736 H1         16.7455  -29.9445  -14.1049 H        54   G    0.3424
   1737 H8         21.7979  -28.9455  -10.2856 H        54   G    0.1640
   1738 H21        17.2843  -29.4497  -16.2025 H        54   G    0.4364
   1739 H22        18.8877  -28.9109  -16.6489 H        54   G    0.4364
   1740 HO2'       22.8232  -25.6191  -14.8211 H        54   G    0.4186
   1741 HO5'       24.5341  -26.9162   -8.7465 H        54   G    0.4295
   1742 P          22.7960  -23.6260  -11.9850 P.3      55   C    1.1662
   1743 C5'        21.7720  -23.0650  -14.3350 C.3      55   C    0.0558
   1744 O5'        21.5600  -23.5000  -12.9960 O.3      55   C   -0.4989
   1745 C4'        20.5490  -23.3180  -15.1930 C.3      55   C    0.1065
   1746 O4'        20.2080  -24.7270  -15.1340 O.3      55   C   -0.3548
   1747 C3'        19.2790  -22.6250  -14.7370 C.3      55   C    0.2022
   1748 O3'        19.2340  -21.2840  -15.1670 O.3      55   C   -0.5246
   1749 C2'        18.2110  -23.4860  -15.3960 C.3      55   C    0.0670
   1750 O2'        18.0850  -23.2440  -16.7900 O.3      55   C   -0.6139
   1751 C1'        18.7890  -24.8750  -15.1450 C.3      55   C    0.0066
   1752 N1         18.3210  -25.5020  -13.8250 N.am     55   C   -0.0484
   1753 C2         17.1210  -26.2410  -13.7880 C.2      55   C    0.7538
   1754 O2         16.4610  -26.3880  -14.8240 O.2      55   C   -0.6252
   1755 N3         16.7250  -26.7900  -12.6040 N.2      55   C   -0.7584
   1756 C4         17.4500  -26.6000  -11.4880 C.2      55   C    0.8185
   1757 N4         16.9950  -27.1290  -10.3450 N.pl3    55   C   -0.9530
   1758 C5         18.6580  -25.8360  -11.4970 C.2      55   C   -0.5215
   1759 C6         19.0520  -25.3150  -12.6690 C.2      55   C    0.0053
   1760 OP1        23.6930  -22.4580  -12.1570 O.co2    55   C   -0.7760
   1761 OP2        22.2500  -23.9420  -10.6380 O.co2    55   C   -0.7760
   1762 H5'        21.9891  -21.9968  -14.3316 H        55   C    0.0679
   1763 H5''       22.6221  -23.6020  -14.7558 H        55   C    0.0679
   1764 H4'        20.7648  -23.0393  -16.2244 H        55   C    0.1174
   1765 H3'        19.1893  -22.6768  -13.6519 H        55   C    0.0615
   1766 H2'        17.2514  -23.3677  -14.8928 H        55   C    0.0972
   1767 H1'        18.5071  -25.5307  -15.9688 H        55   C    0.2029
   1768 H5         19.2318  -25.6839  -10.5948 H        55   C    0.1928
   1769 H6         19.9626  -24.7356  -12.7089 H        55   C    0.1958
   1770 H41        16.1360  -27.6603  -10.3411 H        55   C    0.4234
   1771 H42        17.5108  -26.9967   -9.4868 H        55   C    0.4234
   1772 HO2'       17.7205  -22.3672  -16.9314 H        55   C    0.4186
   1773 P          18.5360  -20.1830  -14.2280 P.3      56   U    1.1662
   1774 C5'        16.3310  -20.3390  -15.6430 C.3      56   U    0.0558
   1775 O5'        16.9730  -20.5060  -14.3810 O.3      56   U   -0.4989
   1776 C4'        14.9050  -20.8520  -15.6130 C.3      56   U    0.1065
   1777 O4'        14.8860  -22.2870  -15.4060 O.3      56   U   -0.3548
   1778 C3'        14.0460  -20.3290  -14.4810 C.3      56   U    0.2022
   1779 O3'        13.6160  -18.9960  -14.7260 O.3      56   U   -0.5246
   1780 C2'        12.8980  -21.3320  -14.5070 C.3      56   U    0.0670
   1781 O2'        11.9620  -21.0930  -15.5440 O.3      56   U   -0.6139
   1782 C1'        13.6540  -22.6390  -14.7620 C.3      56   U    0.0674
   1783 N1         13.9320  -23.4180  -13.4800 N.am     56   U    0.0418
   1784 C2         12.8960  -24.1530  -12.8800 C.2      56   U    0.4687
   1785 O2         11.7680  -24.2490  -13.3500 O.2      56   U   -0.5477
   1786 N3         13.2500  -24.8010  -11.7110 N.am     56   U   -0.3549
   1787 C4         14.4920  -24.7830  -11.0860 C.2      56   U    0.5952
   1788 O4         14.6600  -25.4170  -10.0480 O.2      56   U   -0.5761
   1789 C5         15.4940  -23.9590  -11.7360 C.2      56   U   -0.3635
   1790 C6         15.1910  -23.3360  -12.8870 C.2      56   U   -0.1126
   1791 OP1        18.8140  -18.8500  -14.8090 O.co2    56   U   -0.7760
   1792 OP2        18.9220  -20.4630  -12.8260 O.co2    56   U   -0.7760
   1793 H5'        16.8895  -20.8896  -16.4000 H        56   U    0.0679
   1794 H5''       16.3245  -19.2805  -15.9032 H        56   U    0.0679
   1795 H4'        14.4227  -20.6218  -16.5630 H        56   U    0.1174
   1796 H3'        14.5837  -20.3888  -13.5348 H        56   U    0.0615
   1797 H2'        12.3965  -21.3635  -13.5397 H        56   U    0.0972
   1798 H1'        13.0669  -23.2628  -15.4360 H        56   U    0.1824
   1799 H3         12.5281  -25.3466  -11.2624 H        56   U    0.3154
   1800 H5         16.4750  -23.8475  -11.2982 H        56   U    0.1811
   1801 H6         15.9546  -22.7470  -13.3732 H        56   U    0.2188
   1802 HO2'       11.4957  -20.2717  -15.3718 H        56   U    0.4186
   1803 P          13.5390  -17.9470  -13.5140 P.3      57   U    1.1662
   1804 C5'        10.9800  -18.5220  -13.1220 C.3      57   U    0.0558
   1805 O5'        12.3290  -18.5080  -12.6170 O.3      57   U   -0.4989
   1806 C4'        10.0660  -19.3900  -12.2600 C.3      57   U    0.1065
   1807 O4'        10.5770  -20.7570  -12.1950 O.3      57   U   -0.3548
   1808 C3'         9.9580  -18.9700  -10.8060 C.3      57   U    0.2022
   1809 O3'         9.0230  -17.8990  -10.6410 O.3      57   U   -0.5246
   1810 C2'         9.5030  -20.2710  -10.1400 C.3      57   U    0.0670
   1811 O2'         8.1250  -20.5600  -10.3570 O.3      57   U   -0.6139
   1812 C1'        10.3850  -21.2840  -10.8760 C.3      57   U    0.0674
   1813 N1         11.7770  -21.5440  -10.2000 N.am     57   U    0.0418
   1814 C2         11.8620  -22.3390   -9.0450 C.2      57   U    0.4687
   1815 O2         10.8940  -22.8370   -8.4920 O.2      57   U   -0.5477
   1816 N3         13.1490  -22.5200   -8.5570 N.am     57   U   -0.3549
   1817 C4         14.3330  -22.0120   -9.0940 C.2      57   U    0.5952
   1818 O4         15.4100  -22.2760   -8.5650 O.2      57   U   -0.5761
   1819 C5         14.1630  -21.1840  -10.2660 C.2      57   U   -0.3635
   1820 C6         12.9330  -21.0180  -10.7830 C.2      57   U   -0.1126
   1821 OP1        13.1570  -16.6320  -14.0810 O.co2    57   U   -0.7760
   1822 OP2        14.7840  -18.0670  -12.7170 O.co2    57   U   -0.7760
   1823 H5'        10.5948  -17.5023  -13.1300 H        57   U    0.0679
   1824 H5''       10.9842  -18.9100  -14.1406 H        57   U    0.0679
   1825 H4'         9.0693  -19.4037  -12.7010 H        57   U    0.1174
   1826 H3'        10.9365  -18.6760  -10.4264 H        57   U    0.0615
   1827 H2'         9.7327  -20.2607   -9.0745 H        57   U    0.0972
   1828 H1'         9.8479  -22.2296  -10.9499 H        57   U    0.1824
   1829 H3         13.2384  -23.0808   -7.7218 H        57   U    0.3154
   1830 H5         15.0157  -20.7032  -10.7222 H        57   U    0.1811
   1831 H6         12.8333  -20.4490  -11.6955 H        57   U    0.2188
   1832 HO2'        7.5855  -19.9176   -9.8902 H        57   U    0.4186
   1833 P           9.4210  -16.6210   -9.7390 P.3      58   U    1.1662
   1834 C5'         8.5660  -17.9640   -7.6080 C.3      58   U    0.0558
   1835 O5'         9.6400  -17.2570   -8.2760 O.3      58   U   -0.4989
   1836 C4'         9.0140  -18.5200   -6.2630 C.3      58   U    0.1065
   1837 O4'         9.7990  -19.7290   -6.4310 O.3      58   U   -0.3548
   1838 C3'         9.9340  -17.6220   -5.4560 C.3      58   U    0.2022
   1839 O3'         9.1970  -16.5560   -4.8550 O.3      58   U   -0.5246
   1840 C2'        10.4920  -18.6090   -4.4220 C.3      58   U    0.0670
   1841 O2'         9.6930  -18.6980   -3.2460 O.3      58   U   -0.6139
   1842 C1'        10.4940  -19.9570   -5.2050 C.3      58   U    0.0674
   1843 N1         11.9150  -20.5110   -5.4690 N.am     58   U    0.0418
   1844 C2         12.3430  -21.6690   -4.7920 C.2      58   U    0.4687
   1845 O2         11.6090  -22.3660   -4.1050 O.2      58   U   -0.5477
   1846 N3         13.6720  -22.0070   -4.9940 N.am     58   U   -0.3549
   1847 C4         14.6170  -21.3020   -5.7330 C.2      58   U    0.5952
   1848 O4         15.7710  -21.7290   -5.8180 O.2      58   U   -0.5761
   1849 C5         14.1190  -20.0910   -6.3610 C.2      58   U   -0.3635
   1850 C6         12.8230  -19.7440   -6.2040 C.2      58   U   -0.1126
   1851 OP1         8.2540  -15.7010   -9.6960 O.co2    58   U   -0.7760
   1852 OP2        10.7340  -16.1180  -10.2170 O.co2    58   U   -0.7760
   1853 H5'         8.2383  -18.7890   -8.2405 H        58   U    0.0679
   1854 H5''        7.7314  -17.2805   -7.4518 H        58   U    0.0679
   1855 H4'         8.1325  -18.7514   -5.6651 H        58   U    0.1174
   1856 H3'        10.7345  -17.2295   -6.0831 H        58   U    0.0615
   1857 H2'        11.5124  -18.3319   -4.1574 H        58   U    0.0972
   1858 H1'         9.9384  -20.6939   -4.6251 H        58   U    0.1824
   1859 H3         13.9898  -22.8598   -4.5561 H        58   U    0.3154
   1860 H5         14.7802  -19.4722   -6.9494 H        58   U    0.1811
   1861 H6         12.4730  -18.8333   -6.6671 H        58   U    0.2188
   1862 HO2'        9.7087  -17.8569   -2.7835 H        58   U    0.4186
   1863 P           9.6320  -15.0180   -5.0940 P.3      59   G    1.1662
   1864 C5'         7.1540  -14.7070   -4.2400 C.3      59   G    0.0558
   1865 O5'         8.5020  -14.2050   -4.2990 O.3      59   G   -0.4989
   1866 C4'         6.4800  -14.3090   -2.9430 C.3      59   G    0.1065
   1867 O4'         6.7980  -15.2640   -1.9230 O.3      59   G   -0.3548
   1868 C3'         6.8930  -12.9580   -2.4010 C.3      59   G    0.2022
   1869 O3'         6.0000  -11.9870   -2.8990 O.3      59   G   -0.5246
   1870 C2'         6.7440  -13.1180   -0.9000 C.3      59   G    0.0670
   1871 O2'         5.4650  -12.6990   -0.4560 O.3      59   G   -0.6139
   1872 C1'         6.9320  -14.6240   -0.6800 C.3      59   G    0.0191
   1873 N1          9.3920  -16.6380    3.3670 N.am     59   G   -0.4787
   1874 C2          8.0840  -16.2090    3.2760 C.2      59   G    0.7657
   1875 N2          7.3370  -16.3390    4.3820 N.pl3    59   G   -0.9672
   1876 N3          7.5610  -15.6350    2.1850 N.2      59   G   -0.6323
   1877 C4          8.4590  -15.5550    1.1530 C.ar     59   G    0.1222
   1878 C5          9.7710  -16.0030    1.1320 C.ar     59   G    0.1744
   1879 C6         10.3290  -16.5840    2.3200 C.2      59   G    0.4770
   1880 O6         11.4960  -16.9900    2.5120 O.2      59   G   -0.5597
   1881 N7         10.3550  -15.7500   -0.1080 N.ar     59   G   -0.5709
   1882 C8          9.3940  -15.2180   -0.8170 C.ar     59   G    0.1374
   1883 N9          8.2230  -15.0260   -0.1150 N.ar     59   G    0.0492
   1884 OP1         9.5110  -14.7130   -6.5450 O.co2    59   G   -0.7760
   1885 OP2        10.9240  -14.7930   -4.3970 O.co2    59   G   -0.7760
   1886 H5'         7.1759  -15.7945   -4.3106 H        59   G    0.0679
   1887 H5''        6.5847  -14.3048   -5.0780 H        59   G    0.0679
   1888 H4'         5.4008  -14.3085   -3.0963 H        59   G    0.1174
   1889 H3'         7.9222  -12.7226   -2.6719 H        59   G    0.0615
   1890 H2'         7.5245  -12.5607   -0.3819 H        59   G    0.0972
   1891 H1'         6.1400  -14.9790   -0.0207 H        59   G    0.2006
   1892 H1          9.6991  -17.0188    4.2506 H        59   G    0.3424
   1893 H8          9.5071  -14.9530   -1.8579 H        59   G    0.1640
   1894 H21         7.7337  -16.7524    5.2137 H        59   G    0.4364
   1895 H22         6.3776  -16.0234    4.3833 H        59   G    0.4364
   1896 HO2'        4.8030  -12.9509   -1.1040 H        59   G    0.4186
   1897 P           6.5350  -10.5980   -3.4690 P.3      60   A    1.1662
   1898 C5'         5.6390   -9.1710   -1.5170 C.3      60   A    0.0558
   1899 O5'         6.7570   -9.7560   -2.1430 O.3      60   A   -0.4989
   1900 C4'         5.8700   -9.0250   -0.0400 C.3      60   A    0.1065
   1901 O4'         6.4020  -10.2480    0.4830 O.3      60   A   -0.3548
   1902 C3'         6.8900   -7.9910    0.3100 C.3      60   A    0.2022
   1903 O3'         6.2710   -6.7280    0.3510 O.3      60   A   -0.5246
   1904 C2'         7.3890   -8.4550    1.6750 C.3      60   A    0.0670
   1905 O2'         6.6090   -7.9610    2.7390 O.3      60   A   -0.6139
   1906 C1'         7.2390   -9.9680    1.5780 C.3      60   A    0.0394
   1907 N1         10.3830  -13.6040    3.4040 N.ar     60   A   -0.7615
   1908 C2          9.2480  -13.0860    3.8810 C.ar     60   A    0.5875
   1909 N3          8.4750  -12.1380    3.3490 N.ar     60   A   -0.6997
   1910 C4          8.9950  -11.6820    2.1910 C.ar     60   A    0.3053
   1911 C5         10.1380  -12.1330    1.5620 C.ar     60   A    0.0515
   1912 C6         10.8700  -13.1410    2.2300 C.ar     60   A    0.7009
   1913 N6         11.9930  -13.6790    1.7470 N.pl3    60   A   -0.9019
   1914 N7         10.3590  -11.4380    0.3860 N.ar     60   A   -0.6073
   1915 C8          9.3190  -10.6440    0.2920 C.ar     60   A    0.2006
   1916 N9          8.4920  -10.6890    1.3850 N.ar     60   A   -0.0251
   1917 OP1         5.4300   -9.9920   -4.2550 O.co2    60   A   -0.7760
   1918 OP2         7.8630  -10.8090   -4.0970 O.co2    60   A   -0.7760
   1919 H5'         5.4618   -8.1864   -1.9498 H        60   A    0.0679
   1920 H5''        4.7641   -9.7995   -1.6835 H        60   A    0.0679
   1921 H4'         4.9280   -8.7932    0.4569 H        60   A    0.1174
   1922 H3'         7.7031   -7.9949   -0.4159 H        60   A    0.0615
   1923 H2'         8.4358   -8.1833    1.8111 H        60   A    0.0972
   1924 H1'         6.7610  -10.3323    2.4873 H        60   A    0.2007
   1925 H2          8.9107  -13.4890    4.8245 H        60   A    0.0473
   1926 H8          9.1318  -10.0143   -0.5652 H        60   A    0.1553
   1927 HO2'        5.6863   -7.9361    2.4753 H        60   A    0.4186
   1928 H61        12.4671  -14.4064    2.2630 H        60   A    0.4115
   1929 H62        12.3682  -13.3584    0.8658 H        60   A    0.4115
   1930 P           6.9300   -5.5080   -0.4430 P.3      61   U    1.1662
   1931 C5'         8.0440   -4.9350    1.8850 C.3      61   U    0.0558
   1932 O5'         8.2080   -5.1640    0.4680 O.3      61   U   -0.4989
   1933 C4'         8.1490   -3.4560    2.2210 C.3      61   U    0.1065
   1934 O4'         7.9650   -3.2510    3.6530 O.3      61   U   -0.3548
   1935 C3'         9.4860   -2.8190    1.8700 C.3      61   U    0.2022
   1936 O3'         9.2740   -1.5330    1.3610 O.3      61   U   -0.5246
   1937 C2'        10.2020   -2.7740    3.2050 C.3      61   U    0.0670
   1938 O2'        11.1280   -1.7260    3.2730 O.3      61   U   -0.6139
   1939 C1'         9.0460   -2.5120    4.1560 C.3      61   U    0.0674
   1940 N1          9.2970   -2.9330    5.5690 N.am     61   U    0.0418
   1941 C2          8.6010   -2.3090    6.5900 C.2      61   U    0.4687
   1942 O2          7.8040   -1.4140    6.3980 O.2      61   U   -0.5477
   1943 N3          8.9160   -2.7420    7.8560 N.am     61   U   -0.3549
   1944 C4          9.8160   -3.7410    8.1960 C.2      61   U    0.5952
   1945 O4          9.9860   -4.0380    9.3790 O.2      61   U   -0.5761
   1946 C5         10.5070   -4.3420    7.0780 C.2      61   U   -0.3635
   1947 C6         10.2260   -3.9300    5.8370 C.2      61   U   -0.1126
   1948 OP1         5.9860   -4.3670   -0.3990 O.co2    61   U   -0.7760
   1949 OP2         7.4220   -6.0120   -1.7550 O.co2    61   U   -0.7760
   1950 H5'         8.8203   -5.4776    2.4245 H        61   U    0.0679
   1951 H5''        7.0669   -5.3043    2.1965 H        61   U    0.0679
   1952 H4'         7.3605   -2.9227    1.6900 H        61   U    0.1174
   1953 H3'        10.0338   -3.4340    1.1560 H        61   U    0.0615
   1954 H2'        10.6782   -3.7297    3.4243 H        61   U    0.0972
   1955 H1'         8.7969   -1.4510    4.1357 H        61   U    0.1824
   1956 H3          8.4412   -2.2836    8.6205 H        61   U    0.3154
   1957 H5         11.2424   -5.1155    7.2429 H        61   U    0.1811
   1958 H6         10.7430   -4.3918    5.0088 H        61   U    0.2188
   1959 HO2'       11.8539   -1.9001    2.6694 H        61   U    0.4186
   1960 P          10.1050   -1.0190    0.1010 P.3      62   U    1.1662
   1961 C5'        10.6260    1.2150    1.5390 C.3      62   U    0.0558
   1962 O5'        10.0890    0.5940    0.3090 O.3      62   U   -0.4989
   1963 C4'         9.5640    2.0550    2.2530 C.3      62   U    0.1065
   1964 O4'         8.8480    1.2200    3.1970 O.3      62   U   -0.3548
   1965 C3'        10.0790    3.2200    3.1060 C.3      62   U    0.2022
   1966 O3'        10.3080    4.4040    2.3090 O.3      62   U   -0.5246
   1967 C2'         8.9230    3.4230    4.0850 C.3      62   U    0.0670
   1968 O2'         7.8640    4.1920    3.5490 O.3      62   U   -0.6139
   1969 C1'         8.4600    1.9950    4.3300 C.3      62   U    0.0674
   1970 N1          9.0440    1.3950    5.5960 N.am     62   U    0.0418
   1971 C2          8.4610    1.6950    6.8130 C.2      62   U    0.4687
   1972 O2          7.4550    2.3770    6.9250 O.2      62   U   -0.5477
   1973 N3          9.0910    1.1320    7.9070 N.am     62   U   -0.3549
   1974 C4         10.2230    0.3280    7.9070 C.2      62   U    0.5952
   1975 O4         10.6610   -0.1110    8.9600 O.2      62   U   -0.5761
   1976 C5         10.8050    0.1080    6.6140 C.2      62   U   -0.3635
   1977 C6         10.2090    0.6330    5.5310 C.2      62   U   -0.1126
   1978 OP1         9.3270   -1.3800   -1.1060 O.co2    62   U   -0.7760
   1979 OP2        11.5110   -1.4800    0.2280 O.co2    62   U   -0.7760
   1980 H5'        10.9674    0.4289    2.2125 H        62   U    0.0679
   1981 H5''       11.4701    1.8532    1.2778 H        62   U    0.0679
   1982 H4'         8.8604    2.4397    1.5147 H        62   U    0.1174
   1983 H3'        10.9865    2.9342    3.6379 H        62   U    0.0615
   1984 H2'         9.2844    3.8689    5.0116 H        62   U    0.0972
   1985 H1'         7.3727    1.9863    4.4061 H        62   U    0.1824
   1986 H3          8.6812    1.3278    8.8091 H        62   U    0.3154
   1987 H5         11.7104   -0.4721    6.5130 H        62   U    0.1811
   1988 H6         10.6541    0.4561    4.5630 H        62   U    0.2188
   1989 HO2'        7.5779    3.8066    2.7176 H        62   U    0.4186
   1990 P          11.5040    5.4200    2.6840 P.3      63   U    1.1662
   1991 C5'         9.8290    6.9900    4.0130 C.3      63   U    0.0558
   1992 O5'        10.9880    6.1380    4.0360 O.3      63   U   -0.4989
   1993 C4'         9.3280    7.3520    5.4150 C.3      63   U    0.1065
   1994 O4'         8.8390    6.1720    6.1040 O.3      63   U   -0.3548
   1995 C3'        10.3510    7.9460    6.3630 C.3      63   U    0.2022
   1996 O3'        10.5360    9.3280    6.1110 O.3      63   U   -0.5246
   1997 C2'         9.7030    7.6880    7.7170 C.3      63   U    0.0670
   1998 O2'         8.7100    8.6390    8.0570 O.3      63   U   -0.6139
   1999 C1'         9.0900    6.2990    7.5030 C.3      63   U    0.0674
   2000 N1         10.0120    5.1490    7.9730 N.am     63   U    0.0418
   2001 C2         10.0850    4.8350    9.3340 C.2      63   U    0.4687
   2002 O2          9.4250    5.4010   10.1910 O.2      63   U   -0.5477
   2003 N3         10.9710    3.8270    9.6550 N.am     63   U   -0.3549
   2004 C4         11.7950    3.1370    8.7840 C.2      63   U    0.5952
   2005 O4         12.5340    2.2610    9.2110 O.2      63   U   -0.5761
   2006 C5         11.6830    3.5260    7.3980 C.2      63   U   -0.3635
   2007 C6         10.8140    4.4870    7.0510 C.2      63   U   -0.1126
   2008 OP1        11.5890    6.4230    1.6050 O.co2    63   U   -0.7760
   2009 OP2        12.7040    4.6140    3.0270 O.co2    63   U   -0.7760
   2010 H5'        10.0839    7.9098    3.4865 H        63   U    0.0679
   2011 H5''        9.0294    6.4837    3.4722 H        63   U    0.0679
   2012 H4'         8.5031    8.0573    5.3137 H        63   U    0.1174
   2013 H3'        11.2987    7.4132    6.2852 H        63   U    0.0615
   2014 H2'        10.4647    7.6461    8.4956 H        63   U    0.0972
   2015 H1'         8.1441    6.2401    8.0415 H        63   U    0.1824
   2016 H3         11.0235    3.5652   10.6291 H        63   U    0.3154
   2017 H5         12.2938    3.0472    6.6470 H        63   U    0.1811
   2018 H6         10.7340    4.7584    6.0087 H        63   U    0.2188
   2019 HO2'        9.1193    9.4978    8.1852 H        63   U    0.4186
   2020 P          12.0230    9.9360    6.0960 P.3      64   G    1.1662
   2021 C5'        11.5460   10.9720    8.4540 C.3      64   G    0.0558
   2022 O5'        12.3490   10.1130    7.6560 O.3      64   G   -0.4989
   2023 C4'        11.6170   10.6110    9.9280 C.3      64   G    0.1065
   2024 O4'        10.9950    9.3220   10.1620 O.3      64   G   -0.3548
   2025 C3'        13.0030   10.4440   10.5110 C.3      64   G    0.2022
   2026 O3'        13.6230   11.6930   10.7450 O.3      64   G   -0.5246
   2027 C2'        12.6710    9.7100   11.7990 C.3      64   G    0.0670
   2028 O2'        12.1340   10.5550   12.7980 O.3      64   G   -0.6139
   2029 C1'        11.6140    8.7100   11.2960 C.3      64   G    0.0191
   2030 N1         14.1090    4.5590   12.8770 N.am     64   G   -0.4787
   2031 C2         13.5110    5.5560   13.6200 C.2      64   G    0.7657
   2032 N2         13.5660    5.4270   14.9460 N.pl3    64   G   -0.9672
   2033 N3         12.8420    6.5680   13.0940 N.2      64   G   -0.6323
   2034 C4         12.8280    6.5160   11.7340 C.ar     64   G    0.1222
   2035 C5         13.4260    5.5850   10.9020 C.ar     64   G    0.1744
   2036 C6         14.1290    4.5020   11.4770 C.2      64   G    0.4770
   2037 O6         14.7260    3.5770   10.8950 O.2      64   G   -0.5597
   2038 N7         13.2320    5.9120    9.5720 N.ar     64   G   -0.5709
   2039 C8         12.5490    7.0260    9.6160 C.ar     64   G    0.1374
   2040 N9         12.2170    7.4260   10.8950 N.ar     64   G    0.0492
   2041 OP1        11.9690   11.2700    5.4400 O.co2    64   G   -0.7760
   2042 OP2        12.9380    8.8890    5.5710 O.co2    64   G   -0.7760
   2043 H5'        10.5106   10.8942    8.1223 H        64   G    0.0679
   2044 H5''       11.8853   11.9995    8.3227 H        64   G    0.0679
   2045 H4'        11.0830   11.3685   10.5017 H        64   G    0.1174
   2046 H3'        13.6210    9.8230    9.8625 H        64   G    0.0615
   2047 H2'        13.5476    9.1826   12.1752 H        64   G    0.0972
   2048 H1'        10.8696    8.5396   12.0738 H        64   G    0.2006
   2049 H1         14.5674    3.8132   13.3807 H        64   G    0.3424
   2050 H8         12.2702    7.5821    8.7331 H        64   G    0.1640
   2051 H21        14.0518    4.6430   15.3576 H        64   G    0.4364
   2052 H22        13.1218    6.1134   15.5389 H        64   G    0.4364
   2053 HO2'       12.6344   10.4483   13.6103 H        64   G    0.4186
   2054 P          15.2200   11.8300   10.6000 P.3      65   G    1.1662
   2055 C5'        15.1960   11.8830   13.2380 C.3      65   G    0.0558
   2056 O5'        15.7540   11.3480   12.0280 O.3      65   G   -0.4989
   2057 C4'        15.6710   11.0950   14.4470 C.3      65   G    0.1065
   2058 O4'        15.0500    9.7800   14.4590 O.3      65   G   -0.3548
   2059 C3'        17.1600   10.8050   14.4680 C.3      65   G    0.2022
   2060 O3'        17.8890   11.9070   14.9750 O.3      65   G   -0.5246
   2061 C2'        17.2320    9.5780   15.3660 C.3      65   G    0.0670
   2062 O2'        17.1080    9.9040   16.7410 O.3      65   G   -0.6139
   2063 C1'        16.0050    8.7980   14.8820 C.3      65   G    0.0191
   2064 N1         18.0670    4.3210   13.3260 N.am     65   G   -0.4787
   2065 C2         18.0600    4.8910   14.5910 C.2      65   G    0.7657
   2066 N2         18.6440    4.1810   15.5620 N.pl3    65   G   -0.9672
   2067 N3         17.5060    6.0730   14.8830 N.2      65   G   -0.6323
   2068 C4         16.9400    6.6530   13.7910 C.ar     65   G    0.1222
   2069 C5         16.9140    6.1740   12.4830 C.ar     65   G    0.1744
   2070 C6         17.4910    4.8970   12.1870 C.2      65   G    0.4770
   2071 O6         17.5620    4.3130   11.0820 O.2      65   G   -0.5597
   2072 N7         16.2590    7.0670   11.6490 N.ar     65   G   -0.5709
   2073 C8         15.8970    8.0450   12.4400 C.ar     65   G    0.1374
   2074 N9         16.2780    7.8740   13.7540 N.ar     65   G    0.0492
   2075 OP1        15.5430   13.2700   10.4300 O.co2    65   G   -0.7760
   2076 OP2        15.6840   10.8370    9.5880 O.co2    65   G   -0.7760
   2077 H5'        15.5061   12.9225   13.3450 H        65   G    0.0679
   2078 H5''       14.1084   11.8363   13.1834 H        65   G    0.0679
   2079 H4'        15.3963   11.6306   15.3557 H        65   G    0.1174
   2080 H3'        17.5071   10.5559   13.4652 H        65   G    0.0615
   2081 H2'        18.1471    9.0153   15.1816 H        65   G    0.0972
   2082 H1'        15.5899    8.2316   15.7156 H        65   G    0.2006
   2083 H1         18.5208    3.4251   13.2189 H        65   G    0.3424
   2084 H8         15.3488    8.9089   12.0942 H        65   G    0.1640
   2085 H21        19.0612    3.2856   15.3517 H        65   G    0.4364
   2086 H22        18.6679    4.5402   16.5057 H        65   G    0.4364
   2087 HO2'       17.8843   10.3915   17.0260 H        65   G    0.4186
   2088 P          19.3550   12.1960   14.4040 P.3      66   U    1.1662
   2089 C5'        20.4410   11.1200   16.5370 C.3      66   U    0.0558
   2090 O5'        20.2290   11.0720   15.1260 O.3      66   U   -0.4989
   2091 C4'        21.2340    9.9170   16.9950 C.3      66   U    0.1065
   2092 O4'        20.4980    8.7230   16.6660 O.3      66   U   -0.3548
   2093 C3'        22.5540    9.7210   16.2840 C.3      66   U    0.2022
   2094 O3'        23.5540   10.5060   16.8360 O.3      66   U   -0.5246
   2095 C2'        22.8110    8.2590   16.5070 C.3      66   U    0.0670
   2096 O2'        23.2980    7.9900   17.8080 O.3      66   U   -0.6139
   2097 C1'        21.4110    7.6900   16.3180 C.3      66   U    0.0674
   2098 N1         21.1450    7.2220   14.8980 N.am     66   U    0.0418
   2099 C2         21.6770    6.0140   14.4760 C.2      66   U    0.4687
   2100 O2         22.3490    5.2940   15.1920 O.2      66   U   -0.5477
   2101 N3         21.3780    5.6720   13.1740 N.am     66   U   -0.3549
   2102 C4         20.6210    6.4040   12.2630 C.2      66   U    0.5952
   2103 O4         20.4390    5.9680   11.1240 O.2      66   U   -0.5761
   2104 C5         20.1120    7.6540   12.7700 C.2      66   U   -0.3635
   2105 C6         20.3880    8.0110   14.0370 C.2      66   U   -0.1126
   2106 OP1        19.7880   13.5340   14.8820 O.co2    66   U   -0.7760
   2107 OP2        19.3560   11.8960   12.9510 O.co2    66   U   -0.7760
   2108 H5'        20.9906   12.0277   16.7863 H        66   U    0.0679
   2109 H5''       19.4772   11.1312   17.0459 H        66   U    0.0679
   2110 H4'        21.3965    9.9678   18.0716 H        66   U    0.1174
   2111 H3'        22.4484    9.9313   15.2197 H        66   U    0.0615
   2112 H2'        23.4920    7.8673   15.7514 H        66   U    0.0972
   2113 H1'        21.2740    6.8507   16.9998 H        66   U    0.1824
   2114 H3         21.7495    4.7925   12.8445 H        66   U    0.3154
   2115 H5         19.5156    8.2966   12.1393 H        66   U    0.1811
   2116 H6         20.0050    8.9523   14.4027 H        66   U    0.2188
   2117 HO2'       24.1798    8.3577   17.9025 H        66   U    0.4186
   2118 P          24.5930   11.2000   15.8530 P.3      67   G    1.1662
   2119 C5'        26.3300    9.2390   16.0850 C.3      67   G    0.0558
   2120 O5'        25.4250    9.9610   15.2610 O.3      67   G   -0.4989
   2121 C4'        26.8200    7.9880   15.3880 C.3      67   G    0.1065
   2122 O4'        25.6900    7.1490   15.0290 O.3      67   G   -0.3548
   2123 C3'        27.5460    8.2310   14.0800 C.3      67   G    0.2022
   2124 O3'        28.9140    8.5240   14.3150 O.3      67   G   -0.5246
   2125 C2'        27.3630    6.8950   13.3680 C.3      67   G    0.0670
   2126 O2'        28.2860    5.9130   13.8010 O.3      67   G   -0.6139
   2127 C1'        25.9340    6.5210   13.7770 C.3      67   G    0.0191
   2128 N1         23.4910    5.5840    9.3660 N.am     67   G   -0.4787
   2129 C2         24.3780    4.7820   10.0570 C.2      67   G    0.7657
   2130 N2         24.6280    3.5860    9.5250 N.pl3    67   G   -0.9672
   2131 N3         24.9450    5.1200   11.2170 N.2      67   G   -0.6323
   2132 C4         24.5480    6.3520   11.6410 C.ar     67   G    0.1222
   2133 C5         23.6980    7.2390   11.0050 C.ar     67   G    0.1744
   2134 C6         23.1090    6.8700    9.7630 C.2      67   G    0.4770
   2135 O6         22.3240    7.5310    9.0610 O.2      67   G   -0.5597
   2136 N7         23.5760    8.4110   11.7330 N.ar     67   G   -0.5709
   2137 C8         24.3230    8.2140   12.7840 C.ar     67   G    0.1374
   2138 N9         24.9340    6.9820   12.8100 N.ar     67   G    0.0492
   2139 OP1        25.4900   12.0560   16.6680 O.co2    67   G   -0.7760
   2140 OP2        23.8280   11.8040   14.7330 O.co2    67   G   -0.7760
   2141 H5'        25.8237    8.9572   17.0082 H        67   G    0.0679
   2142 H5''       27.1831    9.8743   16.3233 H        67   G    0.0679
   2143 H4'        27.4745    7.4362   16.0627 H        67   G    0.1174
   2144 H3'        27.0704    9.0353   13.5187 H        67   G    0.0615
   2145 H2'        27.4272    7.0275   12.2880 H        67   G    0.0972
   2146 H1'        25.8590    5.4396   13.8911 H        67   G    0.2006
   2147 H1         23.0902    5.2165    8.5148 H        67   G    0.3424
   2148 H8         24.4502    8.9512   13.5629 H        67   G    0.1640
   2149 H21        24.1895    3.3184    8.6554 H        67   G    0.4364
   2150 H22        25.2560    2.9471    9.9915 H        67   G    0.4364
   2151 HO2'       28.9690    5.8007   13.1358 H        67   G    0.4186
   2152 P          29.6520    9.6420   13.4370 P.3      68   A    1.1662
   2153 C5'        30.1030    9.7680   10.8570 C.3      68   A    0.0558
   2154 O5'        29.3660    9.1880   11.9310 O.3      68   A   -0.4989
   2155 C4'        30.5560    8.7010    9.8830 C.3      68   A    0.1065
   2156 O4'        31.6520    7.9640   10.4690 O.3      68   A   -0.3548
   2157 C3'        29.5190    7.6460    9.5870 C.3      68   A    0.2022
   2158 O3'        28.6240    8.0820    8.5560 O.3      68   A   -0.5246
   2159 C2'        30.3640    6.4460    9.1730 C.3      68   A    0.0670
   2160 O2'        30.6550    6.4190    7.7940 O.3      68   A   -0.6139
   2161 C1'        31.6460    6.6300    9.9830 C.3      68   A    0.0394
   2162 N1         32.3360    1.7020   11.4910 N.ar     68   A   -0.7615
   2163 C2         32.2990    2.2670   10.2640 C.ar     68   A    0.5875
   2164 N3         32.1350    3.5600    9.9380 N.ar     68   A   -0.6997
   2165 C4         31.9890    4.3270   11.0480 C.ar     68   A    0.3053
   2166 C5         32.0110    3.8890   12.3700 C.ar     68   A    0.0515
   2167 C6         32.2060    2.4990   12.5840 C.ar     68   A    0.7009
   2168 N6         32.2630    1.9450   13.7970 N.pl3    68   A   -0.9019
   2169 N7         31.8240    4.9510   13.2390 N.ar     68   A   -0.6073
   2170 C8         31.6570    5.9870   12.4480 C.ar     68   A    0.2006
   2171 N9         31.7650    5.6940   11.1120 N.ar     68   A   -0.0251
   2172 OP1        31.1090    9.5390   13.6950 O.co2    68   A   -0.7760
   2173 OP2        28.9510   10.9230   13.6620 O.co2    68   A   -0.7760
   2174 H5'        29.4695   10.4844   10.3340 H        68   A    0.0679
   2175 H5''       30.9758   10.2842   11.2569 H        68   A    0.0679
   2176 H4'        30.8820    9.1669    8.9531 H        68   A    0.1174
   2177 H3'        28.9581    7.4116   10.4918 H        68   A    0.0615
   2178 H2'        29.8672    5.5214    9.4670 H        68   A    0.0972
   2179 H1'        32.5017    6.4933    9.3219 H        68   A    0.2007
   2180 H2         32.4172    1.5873    9.4331 H        68   A    0.0473
   2181 H8         31.4528    6.9813   12.8170 H        68   A    0.1553
   2182 H61        32.4023    0.9491   13.8913 H        68   A    0.4115
   2183 H62        32.1669    2.5217   14.6206 H        68   A    0.4115
   2184 HO2'       31.0706    7.2458    7.5386 H        68   A    0.4186
   2185 P          27.0760    7.6430    8.6150 P.3      69   A    1.1662
   2186 C5'        27.5070    5.6300    6.9600 C.3      69   A    0.0558
   2187 O5'        27.1380    6.0720    8.2750 O.3      69   A   -0.4989
   2188 C4'        27.8900    4.1560    6.9610 C.3      69   A    0.1065
   2189 O4'        28.9060    3.9090    7.9650 O.3      69   A   -0.3548
   2190 C3'        26.7570    3.2040    7.3080 C.3      69   A    0.2022
   2191 O3'        26.0170    2.8630    6.1320 O.3      69   A   -0.5246
   2192 C2'        27.4740    1.9930    7.9170 C.3      69   A    0.0670
   2193 O2'        27.8380    1.0260    6.9530 O.3      69   A   -0.6139
   2194 C1'        28.7200    2.6160    8.5480 C.3      69   A    0.0394
   2195 N1         29.3290    0.3810   13.1830 N.ar     69   A   -0.7615
   2196 C2         29.4540   -0.1050   11.9380 C.ar     69   A    0.5875
   2197 N3         29.2750    0.5270   10.7690 N.ar     69   A   -0.6997
   2198 C4         28.9250    1.8160   10.9610 C.ar     69   A    0.3053
   2199 C5         28.7730    2.4580   12.1770 C.ar     69   A    0.0515
   2200 C6         29.0140    1.6970   13.3410 C.ar     69   A    0.7009
   2201 N6         28.8740    2.1920   14.5790 N.pl3    69   A   -0.9019
   2202 N7         28.3810    3.7620   11.9940 N.ar     69   A   -0.6073
   2203 C8         28.3200    3.8950   10.6950 C.ar     69   A    0.2006
   2204 N9         28.6400    2.7640   10.0050 N.ar     69   A   -0.0251
   2205 OP1        26.3490    8.3450    7.5330 O.co2    69   A   -0.7760
   2206 OP2        26.6170    7.7950   10.0150 O.co2    69   A   -0.7760
   2207 H5'        28.3569    6.2177    6.6131 H        69   A    0.0679
   2208 H5''       26.6667    5.7812    6.2825 H        69   A    0.0679
   2209 H4'        28.2878    3.8920    5.9811 H        69   A    0.1174
   2210 H3'        26.0976    3.6596    8.0467 H        69   A    0.0615
   2211 H2'        26.8517    1.5379    8.6875 H        69   A    0.0972
   2212 H1'        29.5827    1.9953    8.3059 H        69   A    0.2007
   2213 H2         29.7368   -1.1450   11.8685 H        69   A    0.0473
   2214 H8         28.0407    4.8194   10.2113 H        69   A    0.1553
   2215 H61        29.0304    1.5985   15.3811 H        69   A    0.4115
   2216 H62        28.6121    3.1587   14.7096 H        69   A    0.4115
   2217 HO2'       27.0462    0.6448    6.5667 H        69   A    0.4186
   2218 P          24.4170    2.8820    6.1660 P.3      70   A    1.1662
   2219 C5'        24.4550    0.4380    7.1060 C.3      70   A    0.0558
   2220 O5'        24.0870    1.8070    7.2870 O.3      70   A   -0.4989
   2221 C4'        23.4560   -0.4490    7.7850 C.3      70   A    0.1065
   2222 O4'        23.5150   -0.2310    9.1940 O.3      70   A   -0.3548
   2223 C3'        22.0400   -0.1650    7.3660 C.3      70   A    0.2022
   2224 O3'        21.6790   -1.1410    6.4700 O.3      70   A   -0.5246
   2225 C2'        21.2150   -0.2020    8.6720 C.3      70   A    0.0670
   2226 O2'        20.2180   -1.2210    8.6950 O.3      70   A   -0.6139
   2227 C1'        22.2620   -0.4480    9.7630 C.3      70   A    0.0394
   2228 N1         23.0320    0.1090   14.8140 N.ar     70   A   -0.7615
   2229 C2         23.1060   -0.9620   14.0050 C.ar     70   A    0.5875
   2230 N3         22.9250   -1.0290   12.6800 N.ar     70   A   -0.6997
   2231 C4         22.5330    0.1570   12.1910 C.ar     70   A    0.3053
   2232 C5         22.3860    1.3390   12.8990 C.ar     70   A    0.0515
   2233 C6         22.6490    1.2890   14.2880 C.ar     70   A    0.7009
   2234 N6         22.5500    2.3430   15.0900 N.pl3    70   A   -0.9019
   2235 N7         21.9990    2.3650   12.0600 N.ar     70   A   -0.6073
   2236 C8         21.9330    1.7910   10.8820 C.ar     70   A    0.2006
   2237 N9         22.1630    0.4430   10.9070 N.ar     70   A   -0.0251
   2238 OP1        23.9150    2.3880    4.8590 O.co2    70   A   -0.7760
   2239 OP2        23.9780    4.2030    6.6740 O.co2    70   A   -0.7760
   2240 H5'        25.4416    0.2684    7.5372 H        70   A    0.0679
   2241 H5''       24.4801    0.2071    6.0410 H        70   A    0.0679
   2242 H4'        23.6938   -1.4909    7.5706 H        70   A    0.1174
   2243 H3'        21.9720    0.8191    6.9024 H        70   A    0.0615
   2244 H2'        20.7455    0.7686    8.8321 H        70   A    0.0972
   2245 H1'        22.1936   -1.4814   10.1029 H        70   A    0.2007
   2246 H2         23.3442   -1.8969   14.4905 H        70   A    0.0473
   2247 H8         21.7165    2.3342    9.9740 H        70   A    0.1553
   2248 H61        22.7552    2.2495   16.0745 H        70   A    0.4115
   2249 H62        22.2695    3.2380   14.7154 H        70   A    0.4115
   2250 HO2'       19.7141   -1.1571    9.5096 H        70   A    0.4186
   2251 P          21.1710   -0.7690    5.0250 P.3      71   U    1.1662
   2252 C5'        18.6540   -0.3870    4.4710 C.3      71   U    0.0558
   2253 O5'        19.7270   -0.1710    5.3540 O.3      71   U   -0.4989
   2254 C4'        17.3340   -0.4540    5.2190 C.3      71   U    0.1065
   2255 O4'        16.2550   -0.4730    4.2570 O.3      71   U   -0.3548
   2256 C3'        17.1340   -1.7030    6.0730 C.3      71   U    0.2022
   2257 O3'        16.2260   -1.4300    7.1630 O.3      71   U   -0.5246
   2258 C2'        16.5130   -2.6710    5.0770 C.3      71   U    0.0670
   2259 O2'        15.7300   -3.6570    5.7120 O.3      71   U   -0.6139
   2260 C1'        15.6180   -1.7400    4.2720 C.3      71   U    0.0674
   2261 N1         15.3640   -2.2010    2.8480 N.am     71   U    0.0418
   2262 C2         14.3790   -3.1660    2.6090 C.2      71   U    0.4687
   2263 O2         13.7130   -3.6870    3.4900 O.2      71   U   -0.5477
   2264 N3         14.1920   -3.4900    1.2830 N.am     71   U   -0.3549
   2265 C4         14.8660   -2.9690    0.1910 C.2      71   U    0.5952
   2266 O4         14.5850   -3.3710   -0.9370 O.2      71   U   -0.5761
   2267 C5         15.8660   -1.9660    0.5120 C.2      71   U   -0.3635
   2268 C6         16.0750   -1.6280    1.7980 C.2      71   U   -0.1126
   2269 OP1        21.0260   -2.0530    4.2780 O.co2    71   U   -0.7760
   2270 OP2        22.0160    0.3270    4.4750 O.co2    71   U   -0.7760
   2271 H5'        18.6144    0.4316    3.7524 H        71   U    0.0679
   2272 H5''       18.8118   -1.3245    3.9379 H        71   U    0.0679
   2273 H4'        17.2352    0.4296    5.8495 H        71   U    0.1174
   2274 H3'        18.0872   -2.0805    6.4431 H        71   U    0.0615
   2275 H2'        17.2759   -3.1245    4.4442 H        71   U    0.0972
   2276 H1'        14.6610   -1.6445    4.7849 H        71   U    0.1824
   2277 H3         13.4854   -4.1841    1.0855 H        71   U    0.3154
   2278 H5         16.4372   -1.4953   -0.2745 H        71   U    0.1811
   2279 H6         16.8237   -0.8831    2.0237 H        71   U    0.2188
   2280 HO2'       16.2992   -4.2413    6.2182 H        71   U    0.4186
   2281 P          16.7320   -1.4370    8.6890 P.3      72   U    1.1662
   2282 C5'        16.9640   -4.0500    8.9230 C.3      72   U    0.0558
   2283 O5'        17.6090   -2.7880    8.8230 O.3      72   U   -0.4989
   2284 C4'        17.7650   -5.0390    9.7500 C.3      72   U    0.1065
   2285 O4'        18.9170   -5.4820    9.0210 O.3      72   U   -0.3548
   2286 C3'        18.2530   -4.5540   11.1100 C.3      72   U    0.2022
   2287 O3'        17.8770   -5.4960   12.1080 O.3      72   U   -0.5246
   2288 C2'        19.7630   -4.5110   10.9590 C.3      72   U    0.0670
   2289 O2'        20.4100   -4.8820   12.1520 O.3      72   U   -0.6139
   2290 C1'        20.0160   -5.5560    9.8750 C.3      72   U    0.0674
   2291 N1         21.2650   -5.2960    9.0680 N.am     72   U    0.0418
   2292 C2         22.4240   -5.9930    9.3570 C.2      72   U    0.4687
   2293 O2         22.4840   -6.8780   10.1650 O.2      72   U   -0.5477
   2294 N3         23.5220   -5.6370    8.6160 N.am     72   U   -0.3549
   2295 C4         23.5900   -4.6560    7.6350 C.2      72   U    0.5952
   2296 O4         24.6530   -4.4680    7.0250 O.2      72   U   -0.5761
   2297 C5         22.3350   -3.9840    7.3740 C.2      72   U   -0.3635
   2298 C6         21.2580   -4.2940    8.1130 C.2      72   U   -0.1126
   2299 OP1        15.5340   -1.5540    9.5540 O.co2    72   U   -0.7760
   2300 OP2        17.6500   -0.2870    8.8620 O.co2    72   U   -0.7760
   2301 H5'        16.8316   -4.4569    7.9205 H        72   U    0.0679
   2302 H5''       15.9853   -3.9132    9.3828 H        72   U    0.0679
   2303 H4'        17.1321   -5.9097    9.9214 H        72   U    0.1174
   2304 H3'        17.8552   -3.5650   11.3373 H        72   U    0.0615
   2305 H2'        20.0915   -3.5249   10.6307 H        72   U    0.0972
   2306 H1'        20.0674   -6.5478   10.3242 H        72   U    0.1824
   2307 H3         24.3750   -6.1440    8.8044 H        72   U    0.3154
   2308 H5         22.2657   -3.2412    6.5931 H        72   U    0.1811
   2309 H6         20.3461   -3.7372    7.9555 H        72   U    0.2188
   2310 HO2'       19.9524   -5.6283   12.5460 H        72   U    0.4186
   2311 P          17.1150   -5.0240   13.4500 P.3      73   C    1.1662
   2312 C5'        18.9620   -4.6930   15.3120 C.3      73   C    0.0558
   2313 O5'        18.2370   -4.1400   14.1990 O.3      73   C   -0.4989
   2314 C4'        19.3540   -3.6230   16.3150 C.3      73   C    0.1065
   2315 O4'        20.2600   -2.6890   15.6800 O.3      73   C   -0.3548
   2316 C3'        18.1980   -2.7990   16.8730 C.3      73   C    0.2022
   2317 O3'        17.7950   -3.3340   18.1290 O.3      73   C   -0.5246
   2318 C2'        18.8010   -1.4120   17.0520 C.3      73   C    0.0670
   2319 O2'        19.3360   -1.2210   18.3460 O.3      73   C   -0.6139
   2320 C1'        19.9100   -1.3570   15.9970 C.3      73   C    0.0066
   2321 N1         19.5150   -0.6180   14.7250 N.am     73   C   -0.0484
   2322 C2         19.4120    0.7900   14.7260 C.2      73   C    0.7538
   2323 O2         19.7090    1.4310   15.7460 O.2      73   C   -0.6252
   2324 N3         19.0170    1.4150   13.5850 N.2      73   C   -0.7584
   2325 C4         18.7530    0.7050   12.4830 C.2      73   C    0.8185
   2326 N4         18.3940    1.3690   11.3810 N.pl3    73   C   -0.9530
   2327 C5         18.8250   -0.7150   12.4700 C.2      73   C   -0.5215
   2328 C6         19.2110   -1.3260   13.5940 C.2      73   C    0.0053
   2329 OP1        16.8210   -6.2370   14.2700 O.co2    73   C   -0.7760
   2330 OP2        15.9880   -4.1430   13.0430 O.co2    73   C   -0.7760
   2331 H5'        18.3339   -5.4312   15.8107 H        73   C    0.0679
   2332 H5''       19.8630   -5.1827   14.9427 H        73   C    0.0679
   2333 H4'        19.8734   -4.0999   17.1462 H        73   C    0.1174
   2334 H3'        17.3627   -2.7742   16.1731 H        73   C    0.0615
   2335 H2'        18.0503   -0.6498   16.8432 H        73   C    0.0972
   2336 H1'        20.7791   -0.8627   16.4311 H        73   C    0.2029
   2337 H5         18.5766   -1.2795   11.5834 H        73   C    0.1928
   2338 H6         19.2848   -2.4034   13.6102 H        73   C    0.1958
   2339 H41        18.3363    2.3773   11.3952 H        73   C    0.4234
   2340 H42        18.1802    0.8628   10.5335 H        73   C    0.4234
   2341 HO2'       19.7659   -0.3638   18.3910 H        73   C    0.4186
   2342 P          16.2670   -3.2530   18.6110 P.3      74   C    1.1662
   2343 C5'        16.3710   -1.0760   20.0560 C.3      74   C    0.0558
   2344 O5'        16.0110   -1.6900   18.8330 O.3      74   C   -0.4989
   2345 C4'        16.0550    0.4090   20.0370 C.3      74   C    0.1065
   2346 O4'        16.7640    1.0290   18.9470 O.3      74   C   -0.3548
   2347 C3'        14.6080    0.7660   19.7580 C.3      74   C    0.2022
   2348 O3'        13.7990    0.6470   20.9230 O.3      74   C   -0.5246
   2349 C2'        14.7320    2.2010   19.2940 C.3      74   C    0.0670
   2350 O2'        14.8910    3.1070   20.3630 O.3      74   C   -0.6139
   2351 C1'        16.0150    2.1380   18.4750 C.3      74   C    0.0066
   2352 N1         15.7880    2.0050   16.9910 N.am     74   C   -0.0484
   2353 C2         15.4030    3.1400   16.2370 C.2      74   C    0.7538
   2354 O2         15.2380    4.2310   16.8040 O.2      74   C   -0.6252
   2355 N3         15.2380    3.0100   14.8960 N.2      74   C   -0.7584
   2356 C4         15.4620    1.8370   14.2990 C.2      74   C    0.8185
   2357 N4         15.3100    1.7780   12.9800 N.pl3    74   C   -0.9530
   2358 C5         15.8690    0.6770   15.0340 C.2      74   C   -0.5215
   2359 C6         16.0260    0.8070   16.3630 C.2      74   C    0.0053
   2360 OP1        16.1730   -3.9380   19.9180 O.co2    74   C   -0.7760
   2361 OP2        15.4070   -3.6970   17.4860 O.co2    74   C   -0.7760
   2362 H5'        17.4402   -1.2101   20.2201 H        74   C    0.0679
   2363 H5''       15.8214   -1.5490   20.8699 H        74   C    0.0679
   2364 H4'        16.3670    0.8604   20.9788 H        74   C    0.1174
   2365 H3'        14.2119    0.1420   18.9568 H        74   C    0.0615
   2366 H2'        13.8847    2.4822   18.6686 H        74   C    0.0972
   2367 H1'        16.5883    3.0468   18.6581 H        74   C    0.2029
   2368 H5         16.0433   -0.2670   14.5391 H        74   C    0.1928
   2369 H6         16.3444   -0.0444   16.9461 H        74   C    0.1958
   2370 H41        15.0285    2.6011   12.4668 H        74   C    0.4234
   2371 H42        15.4760    0.9101   12.4909 H        74   C    0.4234
   2372 HO2'       14.0802    3.1431   20.8758 H        74   C    0.4186
   2373 P          12.3300    0.0350   20.7730 P.3      75   A    1.1662
   2374 C5'        11.1560    2.4070   20.7740 C.3      75   A    0.0558
   2375 O5'        11.5280    1.2280   20.0550 O.3      75   A   -0.4989
   2376 C4'        10.5530    3.4590   19.8460 C.3      75   A    0.1065
   2377 O4'        11.5180    3.8280   18.8350 O.3      75   A   -0.3548
   2378 C3'         9.3460    3.0290   19.0370 C.3      75   A    0.2022
   2379 O3'         8.1670    3.0780   19.7970 O.3      75   A   -0.5246
   2380 C2'         9.3560    4.0470   17.8990 C.3      75   A    0.0670
   2381 O2'         8.8810    5.3320   18.2790 O.3      75   A   -0.6139
   2382 C1'        10.8460    4.1160   17.6060 C.3      75   A    0.0394
   2383 N1         11.1290    3.0120   12.5490 N.ar     75   A   -0.7615
   2384 C2         10.5630    4.0320   13.2060 C.ar     75   A    0.5875
   2385 N3         10.5320    4.2700   14.5250 N.ar     75   A   -0.6997
   2386 C4         11.1330    3.2760   15.2090 C.ar     75   A    0.3053
   2387 C5         11.7410    2.1560   14.6710 C.ar     75   A    0.0515
   2388 C6         11.7360    2.0390   13.2660 C.ar     75   A    0.7009
   2389 N6         12.2820    1.0090   12.6240 N.pl3    75   A   -0.9019
   2390 N7         12.2640    1.3520   15.6690 N.ar     75   A   -0.6073
   2391 C8         11.9750    1.9930   16.7770 C.ar     75   A    0.2006
   2392 N9         11.2880    3.1630   16.5790 N.ar     75   A   -0.0251
   2393 OP1        11.7800   -0.1810   22.1310 O.co2    75   A   -0.7760
   2394 OP2        12.4050   -1.0990   19.8110 O.co2    75   A   -0.7760
   2395 H5'        10.4210    2.1416   21.5339 H        75   A    0.0679
   2396 H5''       12.0386    2.8228   21.2600 H        75   A    0.0679
   2397 H4'        10.2939    4.3422   20.4299 H        75   A    0.1174
   2398 H3'         9.4970    2.0240   18.6429 H        75   A    0.0615
   2399 H2'         8.8076    3.6699   17.0358 H        75   A    0.0972
   2400 H1'        11.1009    5.1270   17.2882 H        75   A    0.2007
   2401 H2         10.0627    4.7635   12.5887 H        75   A    0.0473
   2402 H8         12.2531    1.6317   17.7561 H        75   A    0.1553
   2403 H61        12.2462    0.9661   11.6155 H        75   A    0.4115
   2404 H62        12.7321    0.2702   13.1452 H        75   A    0.4115
   2405 HO2'        7.9400    5.2843   18.4631 H        75   A    0.4186
   2406 P           7.0750    1.9290   19.5960 P.3      76   A    1.1662
   2407 C5'         5.5090    3.4600   18.1490 C.3      76   A    0.0558
   2408 O5'         6.3790    2.3370   18.2090 O.3      76   A   -0.4989
   2409 C4'         5.2240    3.8670   16.7160 C.3      76   A    0.1065
   2410 O4'         6.4650    4.0020   15.9890 O.3      76   A   -0.3548
   2411 C3'         4.4400    2.8730   15.8890 C.3      76   A    0.2022
   2412 O3'         3.0590    2.9410   16.1750 O.3      76   A   -0.5246
   2413 C2'         4.7630    3.3480   14.4800 C.3      76   A    0.0670
   2414 O2'         4.0210    4.4880   14.0880 O.3      76   A   -0.6139
   2415 C1'         6.2410    3.6960   14.6160 C.3      76   A    0.0394
   2416 N1          8.7820    1.4400   10.7420 N.ar     76   A   -0.7615
   2417 C2          8.0140    2.5320   10.7860 C.ar     76   A    0.5875
   2418 N3          7.4020    3.0770   11.8340 N.ar     76   A   -0.6997
   2419 C4          7.5900    2.3370   12.9430 C.ar     76   A    0.3053
   2420 C5          8.3430    1.1810   13.0500 C.ar     76   A    0.0515
   2421 C6          8.9480    0.7080   11.8710 C.ar     76   A    0.7009
   2422 N6          9.6920   -0.4030   11.8250 N.pl3    76   A   -0.9019
   2423 N7          8.3030    0.6840   14.3370 N.ar     76   A   -0.6073
   2424 C8          7.5740    1.5600   14.9880 C.ar     76   A    0.2006
   2425 N9          7.1290    2.5990   14.2110 N.ar     76   A   -0.0251
   2426 OP1         6.1010    2.0470   20.6990 O.co2    76   A   -0.7760
   2427 OP2         7.7780    0.6410   19.3800 O.co2    76   A   -0.7760
   2428 H5'         5.9752    4.2971   18.6687 H        76   A    0.0679
   2429 H5''        4.5699    3.2111   18.6432 H        76   A    0.0679
   2430 H4'         4.7024    4.8241   16.7134 H        76   A    0.1174
   2431 H3'         4.8150    1.8620   16.0480 H        76   A    0.0615
   2432 H2'         4.6258    2.5383   13.7633 H        76   A    0.0972
   2433 H1'         6.4595    4.5765   14.0117 H        76   A    0.2007
   2434 H2          7.8706    3.0409    9.8443 H        76   A    0.0473
   2435 H8          7.3453    1.4708   16.0397 H        76   A    0.1553
   2436 H61        10.1131   -0.6931   10.9540 H        76   A    0.4115
   2437 H62         9.8325   -0.9516   12.6613 H        76   A    0.4115
   2438 HO2'        3.0935    4.2542   14.0065 H        76   A    0.4186
   2439 P           2.1770    1.6030   16.0870 P.3      77   A    1.1662
   2440 C5'         1.1640    2.2690   13.7520 C.3      77   A    0.0558
   2441 O5'         2.0050    1.3970   14.5030 O.3      77   A   -0.4989
   2442 C4'         1.5620    2.2990   12.2900 C.3      77   A    0.1065
   2443 O4'         2.9950    2.4720   12.1800 O.3      77   A   -0.3548
   2444 C3'         1.2540    1.0330   11.5250 C.3      77   A    0.2022
   2445 O3'        -0.0860    1.0670   11.0370 O.3      77   A   -0.5246
   2446 C2'         2.2830    1.0610   10.3940 C.3      77   A    0.0670
   2447 O2'         1.8260    1.7420    9.2370 O.3      77   A   -0.6139
   2448 C1'         3.4860    1.7820   11.0400 C.3      77   A    0.0394
   2449 N1          7.0940   -1.6440    9.6450 N.ar     77   A   -0.7615
   2450 C2          6.3240   -0.8150    8.9220 C.ar     77   A    0.5875
   2451 N3          5.4080    0.0630    9.3400 N.ar     77   A   -0.6997
   2452 C4          5.3400    0.0750   10.6880 C.ar     77   A    0.3053
   2453 C5          6.0460   -0.7410   11.5620 C.ar     77   A    0.0515
   2454 C6          6.9630   -1.6510   10.9870 C.ar     77   A    0.7009
   2455 N6          7.7400   -2.4600   11.7040 N.pl3    77   A   -0.9019
   2456 N7          5.7080   -0.4650   12.8700 N.ar     77   A   -0.6073
   2457 C8          4.7850    0.4580   12.7670 C.ar     77   A    0.2006
   2458 N9          4.5340    0.8590   11.4830 N.ar     77   A   -0.0251
   2459 OP1         0.8470    1.8830   16.7020 O.co2    77   A   -0.7760
   2460 OP2         3.0000    0.4770   16.5960 O.co2    77   A   -0.7760
   2461 H5'         0.1335    1.9229   13.8317 H        77   A    0.0679
   2462 H5''        1.2356    3.2761   14.1627 H        77   A    0.0679
   2463 H4'         1.0645    3.1380   11.8035 H        77   A    0.1174
   2464 H3'         1.4070    0.1587   12.1577 H        77   A    0.0615
   2465 H2'         2.5655    0.0416   10.1310 H        77   A    0.0972
   2466 H1'         3.9052    2.4977   10.3328 H        77   A    0.2007
   2467 H2          6.4650   -0.8650    7.8524 H        77   A    0.0473
   2468 H8          4.2667    0.8674   13.6215 H        77   A    0.1553
   2469 H61         8.3955   -3.0727   11.2403 H        77   A    0.4115
   2470 H62         7.6740   -2.4610   12.7118 H        77   A    0.4115
   2471 HO2'        1.0799    1.2694    8.8607 H        77   A    0.4186
   2472 P          -0.9930   -0.2660   11.0740 P.3      78   A    1.1662
   2473 C5'        -0.6090   -1.6370    8.8560 C.3      78   A    0.0558
   2474 O5'        -0.1560   -1.3030   10.1570 O.3      78   A   -0.4989
   2475 C4'         0.5270   -1.7420    7.8490 C.3      78   A    0.1065
   2476 O4'         1.8110   -1.5830    8.4720 O.3      78   A   -0.3548
   2477 C3'         0.6580   -3.0850    7.2120 C.3      78   A    0.2022
   2478 O3'        -0.3360   -3.2870    6.2730 O.3      78   A   -0.5246
   2479 C2'         2.0420   -3.0140    6.5960 C.3      78   A    0.0670
   2480 O2'         2.0670   -2.4670    5.3000 O.3      78   A   -0.6139
   2481 C1'         2.7900   -2.1220    7.5840 C.3      78   A    0.0394
   2482 N1          6.9190   -5.2380    7.3470 N.ar     78   A   -0.7615
   2483 C2          6.2440   -4.5890    6.3940 C.ar     78   A    0.5875
   2484 N3          5.1730   -3.7980    6.5180 N.ar     78   A   -0.6997
   2485 C4          4.8140   -3.6560    7.8170 C.ar     78   A    0.3053
   2486 C5          5.4190   -4.2570    8.9070 C.ar     78   A    0.0515
   2487 C6          6.5300   -5.0920    8.6380 C.ar     78   A    0.7009
   2488 N6          7.2010   -5.7420    9.5930 N.pl3    78   A   -0.9019
   2489 N7          4.7840   -3.8900   10.0890 N.ar     78   A   -0.6073
   2490 C8          3.8170   -3.0820    9.6950 C.ar     78   A    0.2006
   2491 N9          3.7850   -2.8770    8.3400 N.ar     78   A   -0.0251
   2492 OP1        -2.2900    0.0590   10.4190 O.co2    78   A   -0.7760
   2493 OP2        -0.9840   -0.7910   12.4580 O.co2    78   A   -0.7760
   2494 H5'        -1.3031   -0.8667    8.5198 H        78   A    0.0679
   2495 H5''       -1.1335   -2.5916    8.8983 H        78   A    0.0679
   2496 H4'         0.4004   -0.9833    7.0767 H        78   A    0.1174
   2497 H3'         0.6234   -3.8666    7.9709 H        78   A    0.0615
   2498 H2'         2.4908   -4.0072    6.5846 H        78   A    0.0972
   2499 H1'         3.2796   -1.3109    7.0450 H        78   A    0.2007
   2500 H2          6.6132   -4.7211    5.3877 H        78   A    0.0473
   2501 H8          3.1158   -2.6247   10.3774 H        78   A    0.1553
   2502 H61         7.9861   -6.3285    9.3486 H        78   A    0.4115
   2503 H62         6.9232   -5.6469   10.5594 H        78   A    0.4115
   2504 HO2'        1.6497   -1.6025    5.3097 H        78   A    0.4186
   2505 P          -0.9920   -4.7390    6.1410 P.3      79   C    1.1662
   2506 C5'         0.5470   -5.1730    4.0330 C.3      79   C    0.0558
   2507 O5'         0.1390   -5.5760    5.3530 O.3      79   C   -0.4989
   2508 C4'         1.8260   -5.8690    3.5960 C.3      79   C    0.1065
   2509 O4'         2.9180   -5.4960    4.4630 O.3      79   C   -0.3548
   2510 C3'         1.8010   -7.3780    3.6600 C.3      79   C    0.2022
   2511 O3'         1.2020   -7.9120    2.5150 O.3      79   C   -0.5246
   2512 C2'         3.2800   -7.7190    3.7360 C.3      79   C    0.0670
   2513 O2'         3.9190   -7.6680    2.4750 O.3      79   C   -0.6139
   2514 C1'         3.7980   -6.6050    4.6290 C.3      79   C    0.0066
   2515 N1          3.8750   -6.9690    6.1000 N.am     79   C   -0.0484
   2516 C2          4.9570   -7.7360    6.5920 C.2      79   C    0.7538
   2517 O2          5.8230   -8.1370    5.8140 O.2      79   C   -0.6252
   2518 N3          5.0360   -7.9770    7.9300 N.2      79   C   -0.7584
   2519 C4          4.1040   -7.4780    8.7620 C.2      79   C    0.8185
   2520 N4          4.2220   -7.7290   10.0730 N.pl3    79   C   -0.9530
   2521 C5          3.0180   -6.6840    8.2850 C.2      79   C   -0.5215
   2522 C6          2.9410   -6.4610    6.9680 C.2      79   C    0.0053
   2523 OP1        -2.1990   -4.5900    5.2830 O.co2    79   C   -0.7760
   2524 OP2        -1.1200   -5.3410    7.4920 O.co2    79   C   -0.7760
   2525 H5'        -0.2469   -5.4206    3.3283 H        79   C    0.0679
   2526 H5''        0.7076   -4.0949    4.0238 H        79   C    0.0679
   2527 H4'         2.0639   -5.5629    2.5773 H        79   C    0.1174
   2528 H3'         1.2826   -7.7156    4.5574 H        79   C    0.0615
   2529 H2'         3.4287   -8.6914    4.2055 H        79   C    0.0972
   2530 H1'         4.7922   -6.3167    4.2875 H        79   C    0.2029
   2531 H5          2.2834   -6.2771    8.9641 H        79   C    0.1928
   2532 H6          2.1261   -5.8683    6.5794 H        79   C    0.1958
   2533 H41         4.9931   -8.2856   10.4132 H        79   C    0.4234
   2534 H42         3.5398   -7.3616   10.7209 H        79   C    0.4234
   2535 HO2'        3.5844   -8.3746    1.9179 H        79   C    0.4186
   2536 P           0.3720   -9.2590    2.6470 P.3      80   C    1.1662
   2537 C5'         2.0740  -10.6840    1.3460 C.3      80   C    0.0558
   2538 O5'         1.4860  -10.3770    2.5740 O.3      80   C   -0.4989
   2539 C4'         3.2600  -11.5700    1.5620 C.3      80   C    0.1065
   2540 O4'         4.0420  -11.0490    2.6520 O.3      80   C   -0.3548
   2541 C3'         2.9000  -12.9730    1.9540 C.3      80   C    0.2022
   2542 O3'         2.7780  -13.7300    0.7980 O.3      80   C   -0.5246
   2543 C2'         4.0820  -13.4180    2.8010 C.3      80   C    0.0670
   2544 O2'         5.0780  -14.0630    2.0580 O.3      80   C   -0.6139
   2545 C1'         4.6200  -12.1110    3.3760 C.3      80   C    0.0066
   2546 N1          4.3140  -11.9100    4.8150 N.am     80   C   -0.0484
   2547 C2          5.0130  -12.6350    5.7950 C.2      80   C    0.7538
   2548 O2          5.8740  -13.4380    5.4490 O.2      80   C   -0.6252
   2549 N3          4.7730  -12.3740    7.1020 N.2      80   C   -0.7584
   2550 C4          3.8510  -11.4660    7.4440 C.2      80   C    0.8185
   2551 N4          3.5840  -11.2920    8.7470 N.pl3    80   C   -0.9530
   2552 C5          3.1240  -10.7220    6.4610 C.2      80   C   -0.5215
   2553 C6          3.3800  -10.9790    5.1740 C.2      80   C    0.0053
   2554 OP1        -0.5090   -9.3630    1.4560 O.co2    80   C   -0.7760
   2555 OP2        -0.2010   -9.3170    4.0150 O.co2    80   C   -0.7760
   2556 H5'         1.3483  -11.1976    0.7153 H        80   C    0.0679
   2557 H5''        2.3930   -9.7638    0.8565 H        80   C    0.0679
   2558 H4'         3.8672  -11.5905    0.6570 H        80   C    0.1174
   2559 H3'         1.9763  -12.9919    2.5323 H        80   C    0.0615
   2560 H2'         3.7395  -14.0667    3.6072 H        80   C    0.0972
   2561 H1'         5.7010  -12.0841    3.2385 H        80   C    0.2029
   2562 H5          2.3945   -9.9793    6.7485 H        80   C    0.1928
   2563 H6          2.8408  -10.4430    4.4069 H        80   C    0.1958
   2564 H41         4.0851  -11.8278    9.4412 H        80   C    0.4234
   2565 H42         2.8818  -10.6252    9.0339 H        80   C    0.4234
   2566 HO2'        5.1841  -13.6208    1.2125 H        80   C    0.4186
   2567 P           1.4810  -14.6290    0.5470 P.3      81   G    1.1662
   2568 C5'         3.2820  -16.5210    0.4030 C.3      81   G    0.0558
   2569 O5'         2.0020  -16.1000    0.8820 O.3      81   G   -0.4989
   2570 C4'         3.9350  -17.4890    1.3660 C.3      81   G    0.1065
   2571 O4'         4.4820  -16.7770    2.4900 O.3      81   G   -0.3548
   2572 C3'         2.9970  -18.5220    1.9320 C.3      81   G    0.2022
   2573 O3'         3.0970  -19.6500    1.1610 O.3      81   G   -0.5246
   2574 C2'         3.5170  -18.7700    3.3420 C.3      81   G    0.0670
   2575 O2'         4.4380  -19.8500    3.4010 O.3      81   G   -0.6139
   2576 C1'         4.1980  -17.4590    3.6960 C.3      81   G    0.0191
   2577 N1          3.5920  -15.4840    8.4000 N.am     81   G   -0.4787
   2578 C2          4.4980  -16.4320    7.9630 C.2      81   G    0.7657
   2579 N2          5.3680  -16.8820    8.8770 N.pl3    81   G   -0.9672
   2580 N3          4.5610  -16.8890    6.7040 N.2      81   G   -0.6323
   2581 C4          3.6260  -16.3040    5.8980 C.ar     81   G    0.1222
   2582 C5          2.6960  -15.3290    6.2340 C.ar     81   G    0.1744
   2583 C6          2.6600  -14.8360    7.5790 C.2      81   G    0.4770
   2584 O6          1.9100  -13.9750    8.0590 O.2      81   G   -0.5597
   2585 N7          1.9030  -15.0060    5.1310 N.ar     81   G   -0.5709
   2586 C8          2.3430  -15.7840    4.1750 C.ar     81   G    0.1374
   2587 N9          3.4030  -16.5810    4.5550 N.ar     81   G    0.0492
   2588 OP1         1.1530  -14.5490   -0.9010 O.co2    81   G   -0.7760
   2589 OP2         0.4590  -14.2760    1.5610 O.co2    81   G   -0.7760
   2590 H5'         3.9234  -15.6473    0.2876 H        81   G    0.0679
   2591 H5''        3.1602  -17.0064   -0.5653 H        81   G    0.0679
   2592 H4'         4.7466  -18.0010    0.8490 H        81   G    0.1174
   2593 H3'         1.9722  -18.1511    1.9522 H        81   G    0.0615
   2594 H2'         2.6836  -18.9527    4.0204 H        81   G    0.0972
   2595 H1'         5.1386  -17.6805    4.2003 H        81   G    0.2006
   2596 H1          3.6027  -15.2414    9.3804 H        81   G    0.3424
   2597 H8          1.9167  -15.8005    3.1828 H        81   G    0.1640
   2598 H21         5.3302  -16.5341    9.8245 H        81   G    0.4364
   2599 H22         6.0617  -17.5691    8.6186 H        81   G    0.4364
   2600 HO2'        3.9933  -20.6318    3.7365 H        81   G    0.4186
   2601 P           2.1040  -20.8430    1.4000 P.3      82   A    1.1662
   2602 C5'         3.2840  -21.5360   -0.8550 C.3      82   A    0.0558
   2603 O5'         2.6010  -21.9320    0.3350 O.3      82   A   -0.4989
   2604 C4'         3.9740  -22.7220   -1.4960 C.3      82   A    0.1065
   2605 O4'         5.0060  -23.2260   -0.6090 O.3      82   A   -0.3548
   2606 C3'         3.0840  -23.9170   -1.7300 C.3      82   A    0.2022
   2607 O3'         2.3420  -23.7540   -2.9080 O.3      82   A   -0.5246
   2608 C2'         4.1010  -25.0610   -1.8190 C.3      82   A    0.0670
   2609 O2'         4.7420  -25.1830   -3.0830 O.3      82   A   -0.6139
   2610 C1'         5.1040  -24.6540   -0.7430 C.3      82   A    0.0394
   2611 N1          4.9480  -29.0620    1.9700 N.ar     82   A   -0.7615
   2612 C2          5.3390  -28.8080    0.7080 C.ar     82   A    0.5875
   2613 N3          5.3770  -27.6330    0.0660 N.ar     82   A   -0.6997
   2614 C4          4.9350  -26.6370    0.8620 C.ar     82   A    0.3053
   2615 C5          4.4670  -26.7580    2.1620 C.ar     82   A    0.0515
   2616 C6          4.4910  -28.0410    2.7370 C.ar     82   A    0.7009
   2617 N6          4.0130  -28.3040    3.9620 N.pl3    82   A   -0.9019
   2618 N7          4.0720  -25.5350    2.6580 N.ar     82   A   -0.6073
   2619 C8          4.2930  -24.7070    1.6690 C.ar     82   A    0.2006
   2620 N9          4.8390  -25.2950    0.5580 N.ar     82   A   -0.0251
   2621 OP1         0.7400  -20.3780    1.0280 O.co2    82   A   -0.7760
   2622 OP2         2.3650  -21.3820    2.7560 O.co2    82   A   -0.7760
   2623 H5'         2.5639  -21.1180   -1.5584 H        82   A    0.0679
   2624 H5''        4.0271  -20.7779   -0.6079 H        82   A    0.0679
   2625 H4'         4.4244  -22.4140   -2.4396 H        82   A    0.1174
   2626 H3'         2.4183  -24.0665   -0.8799 H        82   A    0.0615
   2627 H2'         3.6262  -26.0042   -1.5489 H        82   A    0.0972
   2628 H1'         6.1095  -24.9150   -1.0731 H        82   A    0.2007
   2629 H2          5.6654  -29.6647    0.1371 H        82   A    0.0473
   2630 H8          4.0651  -23.6527    1.7235 H        82   A    0.1553
   2631 H61         4.0252  -29.2495    4.3168 H        82   A    0.4115
   2632 H62         3.6407  -27.5564    4.5299 H        82   A    0.4115
   2633 HO2'        4.0968  -25.4391   -3.7461 H        82   A    0.4186
   2634 P           0.7720  -24.0220   -2.8890 P.3      83   C    1.1662
   2635 C5'         1.2260  -26.3960   -3.9260 C.3      83   C    0.0558
   2636 O5'         0.6660  -25.6220   -2.8650 O.3      83   C   -0.4989
   2637 C4'         1.5050  -27.8200   -3.4800 C.3      83   C    0.1065
   2638 O4'         2.4420  -27.7990   -2.3830 O.3      83   C   -0.3548
   2639 C3'         0.2990  -28.5670   -2.9370 C.3      83   C    0.2022
   2640 O3'        -0.4360  -29.1550   -4.0000 O.3      83   C   -0.5246
   2641 C2'         0.9470  -29.6110   -2.0440 C.3      83   C    0.0670
   2642 O2'         1.3850  -30.7590   -2.7470 O.3      83   C   -0.6139
   2643 C1'         2.1450  -28.8440   -1.4770 C.3      83   C    0.0066
   2644 N1          1.8970  -28.2740   -0.0930 N.am     83   C   -0.0484
   2645 C2          1.8890  -29.1450    1.0220 C.2      83   C    0.7538
   2646 O2          2.1970  -30.3300    0.8640 O.2      83   C   -0.6252
   2647 N3          1.6060  -28.6480    2.2590 N.2      83   C   -0.7584
   2648 C4          1.3300  -27.3550    2.4110 C.2      83   C    0.8185
   2649 N4          1.1230  -26.9080    3.6580 N.pl3    83   C   -0.9530
   2650 C5          1.2900  -26.4490    1.2840 C.2      83   C   -0.5215
   2651 C6          1.5750  -26.9490    0.0660 C.2      83   C    0.0053
   2652 OP1         0.2210  -23.5110   -4.1660 O.co2    83   C   -0.7760
   2653 OP2         0.2410  -23.5130   -1.6000 O.co2    83   C   -0.7760
   2654 H5'         0.5243  -26.4159   -4.7598 H        83   C    0.0679
   2655 H5''        2.1576  -25.9342   -4.2530 H        83   C    0.0679
   2656 H4'         1.9336  -28.3811   -4.3104 H        83   C    0.1174
   2657 H3'        -0.3355  -27.9007   -2.3526 H        83   C    0.0615
   2658 H2'         0.2669  -29.8962   -1.2414 H        83   C    0.0972
   2659 H1'         3.0002  -29.5181   -1.4289 H        83   C    0.2029
   2660 H5          1.0400  -25.4065    1.4147 H        83   C    0.1928
   2661 H6          1.5498  -26.2992   -0.7963 H        83   C    0.1958
   2662 H41         1.1664  -27.5484    4.4378 H        83   C    0.4234
   2663 H42         0.9237  -25.9308    3.8176 H        83   C    0.4234
   2664 HO2'        0.6251  -31.2299   -3.0967 H        83   C    0.4186
   2665 P          -2.0350  -28.9850   -4.0770 P.3      84   A    1.1662
   2666 C5'        -2.3050  -31.5430   -3.7020 C.3      84   A    0.0558
   2667 O5'        -2.5630  -30.2360   -3.2340 O.3      84   A   -0.4989
   2668 C4'        -2.4230  -32.5540   -2.5900 C.3      84   A    0.1065
   2669 O4'        -1.4190  -32.3050   -1.5980 O.3      84   A   -0.3548
   2670 C3'        -3.6960  -32.4780   -1.8150 C.3      84   A    0.2022
   2671 O3'        -4.6910  -33.1060   -2.4930 O.3      84   A   -0.5246
   2672 C2'        -3.3370  -33.1910   -0.5270 C.3      84   A    0.0670
   2673 O2'        -3.4370  -34.5890   -0.6130 O.3      84   A   -0.6139
   2674 C1'        -1.8880  -32.7650   -0.3360 C.3      84   A    0.0394
   2675 N1         -2.1690  -31.4460    4.6350 N.ar     84   A   -0.7615
   2676 C2         -2.2830  -32.6380    4.0190 C.ar     84   A    0.5875
   2677 N3         -2.1550  -32.9230    2.7200 N.ar     84   A   -0.6997
   2678 C4         -1.9470  -31.7940    1.9990 C.ar     84   A    0.3053
   2679 C5         -1.8400  -30.5020    2.4870 C.ar     84   A    0.0515
   2680 C6         -1.9670  -30.3350    3.8830 C.ar     84   A    0.7009
   2681 N6         -1.8780  -29.1480    4.4890 N.pl3    84   A   -0.9019
   2682 N7         -1.6160  -29.6090    1.4590 N.ar     84   A   -0.6073
   2683 C8         -1.6290  -30.3560    0.3830 C.ar     84   A    0.2006
   2684 N9         -1.7640  -31.6890    0.6400 N.ar     84   A   -0.0251
   2685 OP1        -2.4390  -29.1420   -5.4960 O.co2    84   A   -0.7760
   2686 OP2        -2.4110  -27.7520   -3.3450 O.co2    84   A   -0.7760
   2687 H5'        -1.2954  -31.5811   -4.1112 H        84   A    0.0679
   2688 H5''       -3.0193  -31.7896   -4.4875 H        84   A    0.0679
   2689 H4'        -2.2987  -33.5590   -2.9934 H        84   A    0.1174
   2690 H3'        -3.9629  -31.4399   -1.6170 H        84   A    0.0615
   2691 H2'        -3.9506  -32.8189    0.2935 H        84   A    0.0972
   2692 H1'        -1.2943  -33.6208   -0.0147 H        84   A    0.2007
   2693 H2         -2.5082  -33.4764    4.6614 H        84   A    0.0473
   2694 H8         -1.5410  -29.9537   -0.6154 H        84   A    0.1553
   2695 H61        -1.9688  -29.0855    5.4930 H        84   A    0.4115
   2696 H62        -1.7199  -28.3130    3.9433 H        84   A    0.4115
   2697 HO2'       -3.1015  -34.9841    0.1950 H        84   A    0.4186
   2698 P          -6.1280  -32.4610   -2.4890 P.3      85   G    1.1662
   2699 C5'        -6.9040  -34.2170   -0.7440 C.3      85   G    0.0558
   2700 O5'        -6.6690  -32.8510   -1.0430 O.3      85   G   -0.4989
   2701 C4'        -7.1840  -34.4230    0.7250 C.3      85   G    0.1065
   2702 O4'        -6.0800  -33.9450    1.5160 O.3      85   G   -0.3548
   2703 C3'        -8.3640  -33.6680    1.2570 C.3      85   G    0.2022
   2704 O3'        -9.5470  -34.3380    0.9210 O.3      85   G   -0.5246
   2705 C2'        -8.0850  -33.6740    2.7540 C.3      85   G    0.0670
   2706 O2'        -8.4590  -34.8850    3.3840 O.3      85   G   -0.6139
   2707 C1'        -6.5670  -33.4980    2.7770 C.3      85   G    0.0191
   2708 N1         -5.6490  -29.7170    6.0640 N.am     85   G   -0.4787
   2709 C2         -6.0630  -31.0060    6.3200 C.2      85   G    0.7657
   2710 N2         -6.2110  -31.3370    7.6050 N.pl3    85   G   -0.9672
   2711 N3         -6.2560  -31.9210    5.3830 N.2      85   G   -0.6323
   2712 C4         -6.0290  -31.4230    4.1430 C.ar     85   G    0.1222
   2713 C5         -5.5890  -30.1610    3.7920 C.ar     85   G    0.1744
   2714 C6         -5.3660  -29.2070    4.7950 C.2      85   G    0.4770
   2715 O6         -5.0380  -28.0200    4.6520 O.2      85   G   -0.5597
   2716 N7         -5.4450  -30.0450    2.4260 N.ar     85   G   -0.5709
   2717 C8         -5.7980  -31.2150    1.9720 C.ar     85   G    0.1374
   2718 N9         -6.1500  -32.1080    2.9590 N.ar     85   G    0.0492
   2719 OP1        -6.9300  -33.1620   -3.5120 O.co2    85   G   -0.7760
   2720 OP2        -5.9810  -30.9900   -2.5490 O.co2    85   G   -0.7760
   2721 H5'        -6.0233  -34.7964   -1.0209 H        85   G    0.0679
   2722 H5''       -7.7585  -34.5674   -1.3230 H        85   G    0.0679
   2723 H4'        -7.3255  -35.4868    0.9156 H        85   G    0.1174
   2724 H3'        -8.3753  -32.6487    0.8711 H        85   G    0.0615
   2725 H2'        -8.5739  -32.8273    3.2359 H        85   G    0.0972
   2726 H1'        -6.1413  -34.1126    3.5702 H        85   G    0.2006
   2727 H1         -5.5423  -29.0949    6.8525 H        85   G    0.3424
   2728 H8         -5.8129  -31.4607    0.9204 H        85   G    0.1640
   2729 H21        -6.0435  -30.6500    8.3261 H        85   G    0.4364
   2730 H22        -6.4905  -32.2745    7.8560 H        85   G    0.4364
   2731 HO2'       -8.1617  -34.8760    4.2968 H        85   G    0.4186
   2732 P         -10.7670  -33.5140    0.3050 P.3      86   U    1.1662
   2733 C5'       -11.7240  -33.5710    2.7260 C.3      86   U    0.0558
   2734 O5'       -11.3820  -32.7960    1.5880 O.3      86   U   -0.4989
   2735 C4'       -11.9090  -32.6910    3.9260 C.3      86   U    0.1065
   2736 O4'       -10.6250  -32.1960    4.3550 O.3      86   U   -0.3548
   2737 C3'       -12.7300  -31.4540    3.6630 C.3      86   U    0.2022
   2738 O3'       -14.1070  -31.7620    3.7490 O.3      86   U   -0.5246
   2739 C2'       -12.2710  -30.5240    4.7760 C.3      86   U    0.0670
   2740 O2'       -12.9980  -30.7190    5.9800 O.3      86   U   -0.6139
   2741 C1'       -10.7820  -30.9120    4.9380 C.3      86   U    0.0674
   2742 N1         -9.7890  -29.9250    4.2740 N.am     86   U    0.0418
   2743 C2         -9.0030  -29.0970    5.0690 C.2      86   U    0.4687
   2744 O2         -9.0280  -29.1180    6.2900 O.2      86   U   -0.5477
   2745 N3         -8.1790  -28.2240    4.3650 N.am     86   U   -0.3549
   2746 C4         -8.0610  -28.0990    2.9840 C.2      86   U    0.5952
   2747 O4         -7.2760  -27.2870    2.5030 O.2      86   U   -0.5761
   2748 C5         -8.8980  -28.9910    2.2290 C.2      86   U   -0.3635
   2749 C6         -9.7090  -29.8510    2.8820 C.2      86   U   -0.1126
   2750 OP1       -11.7490  -34.4880   -0.2250 O.co2    86   U   -0.7760
   2751 OP2       -10.2280  -32.4640   -0.5850 O.co2    86   U   -0.7760
   2752 H5'       -10.9259  -34.2860    2.9256 H        86   U    0.0679
   2753 H5''      -12.6502  -34.1108    2.5290 H        86   U    0.0679
   2754 H4'       -12.3651  -33.2659    4.7320 H        86   U    0.1174
   2755 H3'       -12.4900  -31.0333    2.6865 H        86   U    0.0615
   2756 H2'       -12.3537  -29.4861    4.4535 H        86   U    0.0972
   2757 H1'       -10.5511  -30.9793    6.0011 H        86   U    0.1824
   2758 H3         -7.5999  -27.6105    4.9203 H        86   U    0.3154
   2759 H5         -8.8785  -28.9736    1.1493 H        86   U    0.1811
   2760 H6        -10.3276  -30.5158    2.2974 H        86   U    0.2188
   2761 HO2'      -12.6179  -30.1764    6.6748 H        86   U    0.4186
   2762 P         -15.1940  -30.7150    3.2290 P.3      87   A    1.1662
   2763 C5'       -16.4440  -28.8480    4.5320 C.3      87   A    0.0558
   2764 O5'       -15.4150  -29.8060    4.5170 O.3      87   A   -0.4989
   2765 C4'       -15.9030  -27.4630    4.2160 C.3      87   A    0.1065
   2766 O4'       -16.8330  -26.4610    4.7100 O.3      87   A   -0.3548
   2767 C3'       -14.5330  -27.1120    4.8330 C.3      87   A    0.2022
   2768 O3'       -13.7940  -26.2780    3.9100 O.3      87   A   -0.5246
   2769 C2'       -14.9500  -26.3010    6.0680 C.3      87   A    0.0670
   2770 O2'       -13.9190  -25.4280    6.5160 O.3      87   A   -0.6139
   2771 C1'       -16.1160  -25.5160    5.4590 C.3      87   A    0.0394
   2772 N1        -19.5050  -21.6730    6.0130 N.ar     87   A   -0.7615
   2773 C2        -18.7890  -22.1000    4.9590 C.ar     87   A    0.5875
   2774 N3        -17.9670  -23.1410    4.8770 N.ar     87   A   -0.6997
   2775 C4        -17.8410  -23.7520    6.0740 C.ar     87   A    0.3053
   2776 C5        -18.4690  -23.3990    7.2570 C.ar     87   A    0.0515
   2777 C6        -19.3680  -22.3130    7.1980 C.ar     87   A    0.7009
   2778 N6        -20.1030  -21.9070    8.2370 N.pl3    87   A   -0.9019
   2779 N7        -18.1270  -24.2660    8.2700 N.ar     87   A   -0.6073
   2780 C8        -17.2830  -25.0990    7.7010 C.ar     87   A    0.2006
   2781 N9        -17.0330  -24.8220    6.3840 N.ar     87   A   -0.0251
   2782 OP1       -16.4480  -31.4570    2.9380 O.co2    87   A   -0.7760
   2783 OP2       -14.5690  -29.8710    2.1790 O.co2    87   A   -0.7760
   2784 H5'       -17.1923  -29.1170    3.7864 H        87   A    0.0679
   2785 H5''      -16.9083  -28.8355    5.5181 H        87   A    0.0679
   2786 H4'       -15.8295  -27.3607    3.1333 H        87   A    0.1174
   2787 H3'       -13.9726  -28.0058    5.1071 H        87   A    0.0615
   2788 H2'       -15.2910  -26.9536    6.8717 H        87   A    0.0972
   2789 H1'       -15.7053  -24.7776    4.7703 H        87   A    0.2007
   2790 H2        -18.8962  -21.5179    4.0556 H        87   A    0.0473
   2791 H8        -16.8284  -25.9265    8.2254 H        87   A    0.1553
   2792 H61       -20.7384  -21.1289    8.1328 H        87   A    0.4115
   2793 H62       -20.0233  -22.3782    9.1268 H        87   A    0.4115
   2794 HO2'      -14.2703  -24.8346    7.1839 H        87   A    0.4186
   2795 P         -12.6320  -26.8570    2.9720 P.3      88   G    1.1662
   2796 C5'       -10.7200  -25.6020    1.6990 C.3      88   G    0.0558
   2797 O5'       -11.8410  -25.5270    2.5580 O.3      88   G   -0.4989
   2798 C4'       -10.2770  -24.2180    1.2450 C.3      88   G    0.1065
   2799 O4'       -11.4070  -23.3890    0.9310 O.3      88   G   -0.3548
   2800 C3'        -9.4350  -23.4170    2.2210 C.3      88   G    0.2022
   2801 O3'        -8.4930  -22.6840    1.4890 O.3      88   G   -0.5246
   2802 C2'       -10.4470  -22.4930    2.8860 C.3      88   G    0.0670
   2803 O2'        -9.8450  -21.2910    3.3540 O.3      88   G   -0.6139
   2804 C1'       -11.3910  -22.2130    1.7180 C.3      88   G    0.0191
   2805 N1        -15.1550  -18.7530    1.7400 N.am     88   G   -0.4787
   2806 C2        -13.8180  -18.5630    1.4580 C.2      88   G    0.7657
   2807 N2        -13.4540  -17.3160    1.1060 N.pl3    88   G   -0.9672
   2808 N3        -12.9030  -19.5430    1.4950 N.2      88   G   -0.6323
   2809 C4        -13.4490  -20.7360    1.8890 C.ar     88   G    0.1222
   2810 C5        -14.7740  -21.0150    2.1840 C.ar     88   G    0.1744
   2811 C6        -15.7280  -19.9690    2.1250 C.2      88   G    0.4770
   2812 O6        -16.9340  -20.0290    2.3770 O.2      88   G   -0.5597
   2813 N7        -14.9360  -22.3550    2.5160 N.ar     88   G   -0.5709
   2814 C8        -13.7370  -22.8510    2.4320 C.ar     88   G    0.1374
   2815 N9        -12.7720  -21.9230    2.0880 N.ar     88   G    0.0492
   2816 OP1       -13.2700  -27.4480    1.7620 O.co2    88   G   -0.7760
   2817 OP2       -11.7250  -27.6610    3.7960 O.co2    88   G   -0.7760
   2818 H5'        -9.8976  -26.0815    2.2299 H        88   G    0.0679
   2819 H5''      -10.9784  -26.1996    0.8248 H        88   G    0.0679
   2820 H4'        -9.6949  -24.3414    0.3317 H        88   G    0.1174
   2821 H3'        -8.9512  -24.0655    2.9514 H        88   G    0.0615
   2822 H2'       -10.9695  -23.0059    3.6935 H        88   G    0.0972
   2823 H1'       -10.9959  -21.3880    1.1252 H        88   G    0.2006
   2824 H1        -15.7665  -17.9529    1.6625 H        88   G    0.3424
   2825 H8        -13.5155  -23.8922    2.6142 H        88   G    0.1640
   2826 H21       -14.1445  -16.5798    1.0692 H        88   G    0.4364
   2827 H22       -12.4904  -17.1164    0.8787 H        88   G    0.4364
   2828 HO2'       -9.9063  -21.2535    4.3113 H        88   G    0.4186
   2829 P          -6.9750  -23.1530    1.4520 P.3      89   A    1.1662
   2830 C5'        -6.4760  -21.5420    3.4180 C.3      89   A    0.0558
   2831 O5'        -6.5110  -22.8650    2.9460 O.3      89   A   -0.4989
   2832 C4'        -5.8090  -21.4920    4.7590 C.3      89   A    0.1065
   2833 O4'        -6.4120  -22.4690    5.6230 O.3      89   A   -0.3548
   2834 C3'        -4.3060  -21.7830    4.7570 C.3      89   A    0.2022
   2835 O3'        -3.6480  -20.8490    5.6300 O.3      89   A   -0.5246
   2836 C2'        -4.2220  -23.2070    5.3150 C.3      89   A    0.0670
   2837 O2'        -3.0240  -23.4220    6.0190 O.3      89   A   -0.6139
   2838 C1'        -5.4020  -23.2080    6.2710 C.3      89   A    0.0394
   2839 N1         -6.9230  -26.4440    9.9600 N.ar     89   A   -0.7615
   2840 C2         -6.2650  -25.2720   10.0190 C.ar     89   A    0.5875
   2841 N3         -5.8380  -24.5060    9.0140 N.ar     89   A   -0.6997
   2842 C4         -6.2270  -25.0160    7.8230 C.ar     89   A    0.3053
   2843 C5         -6.9770  -26.1610    7.6120 C.ar     89   A    0.0515
   2844 C6         -7.3290  -26.9060    8.7470 C.ar     89   A    0.7009
   2845 N6         -7.9710  -28.0760    8.6760 N.pl3    89   A   -0.9019
   2846 N7         -7.1690  -26.3820    6.2700 N.ar     89   A   -0.6073
   2847 C8         -6.5880  -25.3630    5.6980 C.ar     89   A    0.2006
   2848 N9         -5.9560  -24.5190    6.5730 N.ar     89   A   -0.0251
   2849 OP1        -6.2610  -22.2420    0.5300 O.co2    89   A   -0.7760
   2850 OP2        -6.9170  -24.6340    1.2230 O.co2    89   A   -0.7760
   2851 H5'        -7.4945  -21.1641    3.5076 H        89   A    0.0679
   2852 H5''       -5.9207  -20.9216    2.7145 H        89   A    0.0679
   2853 H4'        -5.9697  -20.5034    5.1890 H        89   A    0.1174
   2854 H3'        -3.8975  -21.7320    3.7477 H        89   A    0.0615
   2855 H2'        -4.3536  -23.9476    4.5261 H        89   A    0.0972
   2856 H1'        -5.1213  -22.7079    7.1979 H        89   A    0.2007
   2857 H2         -6.0546  -24.9024   11.0117 H        89   A    0.0473
   2858 H8         -6.6039  -25.1996    4.6306 H        89   A    0.1553
   2859 H61        -8.1766  -28.5915    9.5198 H        89   A    0.4115
   2860 H62        -8.2507  -28.4448    7.7783 H        89   A    0.4115
   2861 HO2'       -2.3097  -23.5738    5.3958 H        89   A    0.4186
   2862 P          -2.8600  -19.6010    5.0340 P.3      90   G    1.1662
   2863 C5'        -0.7050  -21.0200    5.2700 C.3      90   G    0.0558
   2864 O5'        -1.3990  -19.8540    5.6060 O.3      90   G   -0.4989
   2865 C4'         0.6250  -21.0570    5.9840 C.3      90   G    0.1065
   2866 O4'         1.2110  -19.7310    5.9590 O.3      90   G   -0.3548
   2867 C3'         0.5420  -21.4460    7.4510 C.3      90   G    0.2022
   2868 O3'         0.6450  -22.8640    7.5840 O.3      90   G   -0.5246
   2869 C2'         1.7350  -20.7160    8.0600 C.3      90   G    0.0670
   2870 O2'         2.9690  -21.4410    7.9030 O.3      90   G   -0.6139
   2871 C1'         1.7660  -19.4140    7.2250 C.3      90   G    0.0191
   2872 N1          0.9320  -16.2590   11.2460 N.am     90   G   -0.4787
   2873 C2          1.6230  -17.4440   11.2070 C.2      90   G    0.7657
   2874 N2          2.1540  -17.8530   12.3610 N.pl3    90   G   -0.9672
   2875 N3          1.7800  -18.1860   10.1090 N.2      90   G   -0.6323
   2876 C4          1.1570  -17.6560    9.0260 C.ar     90   G    0.1222
   2877 C5          0.3510  -16.5320    8.9880 C.ar     90   G    0.1744
   2878 C6          0.2380  -15.7160   10.1650 C.2      90   G    0.4770
   2879 O6         -0.4610  -14.7080   10.3340 O.2      90   G   -0.5597
   2880 N7         -0.1610  -16.3380    7.7160 N.ar     90   G   -0.5709
   2881 C8          0.3100  -17.3340    7.0300 C.ar     90   G    0.1374
   2882 N9          1.0420  -18.2340    7.7700 N.ar     90   G    0.0492
   2883 OP1        -3.4230  -18.3580    5.6390 O.co2    90   G   -0.7760
   2884 OP2        -2.8040  -19.7480    3.5550 O.co2    90   G   -0.7760
   2885 H5'        -1.2956  -21.8879    5.5632 H        90   G    0.0679
   2886 H5''       -0.5379  -21.0436    4.1931 H        90   G    0.0679
   2887 H4'         1.2885  -21.7506    5.4675 H        90   G    0.1174
   2888 H3'        -0.3895  -21.0878    7.8892 H        90   G    0.0615
   2889 H2'         1.5523  -20.4931    9.1112 H        90   G    0.0972
   2890 H1'         2.8084  -19.1322    7.0764 H        90   G    0.2006
   2891 H1          0.9256  -15.7457   12.1158 H        90   G    0.3424
   2892 H8          0.1418  -17.4468    5.9692 H        90   G    0.1640
   2893 H21         2.0369  -17.2969   13.1960 H        90   G    0.4364
   2894 H22         2.6730  -18.7186   12.3994 H        90   G    0.4364
   2895 HO2'        2.9457  -22.2334    8.4444 H        90   G    0.4186
   2896 P          -0.6690  -23.7630    7.8630 P.3      91   U    1.1662
   2897 C5'         0.9870  -24.4920    9.7810 C.3      91   U    0.0558
   2898 O5'        -0.2800  -24.6270    9.1540 O.3      91   U   -0.4989
   2899 C4'         0.8620  -23.8090   11.1280 C.3      91   U    0.1065
   2900 O4'         0.6010  -22.4030   10.9480 O.3      91   U   -0.3548
   2901 C3'        -0.2320  -24.3330   12.0650 C.3      91   U    0.2022
   2902 O3'         0.3740  -24.8390   13.2540 O.3      91   U   -0.5246
   2903 C2'        -1.0850  -23.0860   12.3550 C.3      91   U    0.0670
   2904 O2'        -1.5140  -23.0350   13.6960 O.3      91   U   -0.6139
   2905 C1'        -0.0910  -21.9650   12.0750 C.3      91   U    0.0674
   2906 N1         -0.7030  -20.6090   11.7790 N.am     91   U    0.0418
   2907 C2         -0.7120  -19.6080   12.7630 C.2      91   U    0.4687
   2908 O2         -0.3270  -19.7740   13.8960 O.2      91   U   -0.5477
   2909 N3         -1.2690  -18.4240   12.3760 N.am     91   U   -0.3549
   2910 C4         -1.7360  -18.1090   11.1180 C.2      91   U    0.5952
   2911 O4         -2.1790  -16.9950   10.9010 O.2      91   U   -0.5761
   2912 C5         -1.6480  -19.1630   10.1410 C.2      91   U   -0.3635
   2913 C6         -1.1380  -20.3430   10.4970 C.2      91   U   -0.1126
   2914 OP1        -0.8450  -24.6840    6.7140 O.co2    91   U   -0.7760
   2915 OP2        -1.7740  -22.8810    8.2710 O.co2    91   U   -0.7760
   2916 H5'         1.4204  -25.4820    9.9233 H        91   U    0.0679
   2917 H5''        1.6428  -23.9027    9.1401 H        91   U    0.0679
   2918 H4'         1.8178  -23.9080   11.6425 H        91   U    0.1174
   2919 H3'        -0.8263  -25.1038   11.5744 H        91   U    0.0615
   2920 H2'        -1.9342  -23.0302   11.6739 H        91   U    0.0972
   2921 H1'         0.6003  -21.8757   12.9130 H        91   U    0.1824
   2922 H3         -1.3469  -17.7063   13.0823 H        91   U    0.3154
   2923 H5         -1.9915  -18.9998    9.1302 H        91   U    0.1811
   2924 H6         -1.0626  -21.1212    9.7520 H        91   U    0.2188
   2925 HO2'       -2.1389  -23.7451   13.8598 H        91   U    0.4186
   2926 P           0.3870  -26.4140   13.5590 P.3      92   C    1.1662
   2927 C5'        -1.9980  -27.2550   14.4090 C.3      92   C    0.0558
   2928 O5'        -1.1540  -26.8470   13.3170 O.3      92   C   -0.4989
   2929 C4'        -3.1730  -28.1060   13.9300 C.3      92   C    0.1065
   2930 O4'        -3.8970  -27.4120   12.9040 O.3      92   C   -0.3548
   2931 C3'        -2.8050  -29.4280   13.2900 C.3      92   C    0.2022
   2932 O3'        -2.6090  -30.4110   14.2720 O.3      92   C   -0.5246
   2933 C2'        -4.0300  -29.7400   12.4580 C.3      92   C    0.0670
   2934 O2'        -5.0480  -30.3980   13.1910 O.3      92   C   -0.6139
   2935 C1'        -4.4970  -28.3560   12.0300 C.3      92   C    0.0066
   2936 N1         -4.1680  -28.0060   10.5940 N.am     92   C   -0.0484
   2937 C2         -4.7470  -28.7380    9.5240 C.2      92   C    0.7538
   2938 O2         -5.4950  -29.6850    9.7660 O.2      92   C   -0.6252
   2939 N3         -4.4830  -28.3590    8.2470 N.2      92   C   -0.7584
   2940 C4         -3.7300  -27.2830    8.0060 C.2      92   C    0.8185
   2941 N4         -3.4920  -26.9630    6.7400 N.pl3    92   C   -0.9530
   2942 C5         -3.1210  -26.5330    9.0620 C.2      92   C   -0.5215
   2943 C6         -3.3510  -26.9350   10.3280 C.2      92   C    0.0053
   2944 OP1         0.7510  -26.6060   14.9930 O.co2    92   C   -0.7760
   2945 OP2         1.2080  -27.0710   12.5150 O.co2    92   C   -0.7760
   2946 H5'        -1.4053  -27.8372   15.1146 H        92   C    0.0679
   2947 H5''       -2.3823  -26.3682   14.9130 H        92   C    0.0679
   2948 H4'        -3.8412  -28.2930   14.7707 H        92   C    0.1174
   2949 H3'        -1.9215  -29.3241   12.6601 H        92   C    0.0615
   2950 H2'        -3.7523  -30.3307   11.5851 H        92   C    0.0972
   2951 H1'        -5.5783  -28.3035   12.1574 H        92   C    0.2029
   2952 H5         -2.4992  -25.6753    8.8520 H        92   C    0.1928
   2953 H6         -2.8851  -26.4061   11.1463 H        92   C    0.1958
   2954 H41        -3.8996  -27.5103    5.9954 H        92   C    0.4234
   2955 H42        -2.9032  -26.1721    6.5213 H        92   C    0.4234
   2956 HO2'       -4.7413  -31.2686   13.4547 H        92   C    0.4186
   2957 P          -1.4010  -31.4350   14.1200 P.3      93   U    1.1662
   2958 C5'        -2.8300  -33.3620   13.1750 C.3      93   U    0.0558
   2959 O5'        -1.8710  -32.3750   12.9400 O.3      93   U   -0.4989
   2960 C4'        -3.2710  -33.9570   11.8710 C.3      93   U    0.1065
   2961 O4'        -3.8370  -32.9100   11.0550 O.3      93   U   -0.3548
   2962 C3'        -2.1430  -34.4940   11.0350 C.3      93   U    0.2022
   2963 O3'        -1.7930  -35.7930   11.4480 O.3      93   U   -0.5246
   2964 C2'        -2.7480  -34.4600    9.6430 C.3      93   U    0.0670
   2965 O2'        -3.6170  -35.5530    9.4040 O.3      93   U   -0.6139
   2966 C1'        -3.5310  -33.1450    9.6930 C.3      93   U    0.0674
   2967 N1         -2.7670  -31.9400    9.1380 N.am     93   U    0.0418
   2968 C2         -2.8230  -31.6570    7.7720 C.2      93   U    0.4687
   2969 O2         -3.4410  -32.3380    6.9780 O.2      93   U   -0.5477
   2970 N3         -2.1040  -30.5340    7.3760 N.am     93   U   -0.3549
   2971 C4         -1.3360  -29.6840    8.2000 C.2      93   U    0.5952
   2972 O4         -0.7210  -28.7170    7.7120 O.2      93   U   -0.5761
   2973 C5         -1.3540  -30.0340    9.6090 C.2      93   U   -0.3635
   2974 C6         -2.0360  -31.1260   10.0100 C.2      93   U   -0.1126
   2975 OP1        -1.3230  -32.2300   15.3770 O.co2    93   U   -0.7760
   2976 OP2        -0.2140  -30.6710   13.6320 O.co2    93   U   -0.7760
   2977 H5'        -3.6886  -32.9200   13.6805 H        93   U    0.0679
   2978 H5''       -2.4010  -34.1425   13.8034 H        93   U    0.0679
   2979 H4'        -4.0117  -34.7371   12.0465 H        93   U    0.1174
   2980 H3'        -1.2793  -33.8314   11.0907 H        93   U    0.0615
   2981 H2'        -1.9670  -34.4152    8.8840 H        93   U    0.0972
   2982 H1'        -4.4602  -33.2636    9.1357 H        93   U    0.1824
   2983 H3         -2.1349  -30.3021    6.3935 H        93   U    0.3154
   2984 H5         -0.8264  -29.4258   10.3288 H        93   U    0.1811
   2985 H6         -2.0169  -31.3856   11.0582 H        93   U    0.2188
   2986 HO2'       -3.1083  -36.3667    9.3762 H        93   U    0.4186
   2987 P          -0.2560  -36.2280   11.4450 P.3      94   G    1.1662
   2988 C5'        -0.4870  -37.4700    9.1620 C.3      94   G    0.0558
   2989 O5'         0.0680  -36.3760    9.8850 O.3      94   G   -0.4989
   2990 C4'        -0.3120  -37.3010    7.6690 C.3      94   G    0.1065
   2991 O4'        -0.9560  -36.0960    7.2300 O.3      94   G   -0.3548
   2992 C3'         1.1080  -37.1500    7.1900 C.3      94   G    0.2022
   2993 O3'         1.7350  -38.4200    7.1430 O.3      94   G   -0.5246
   2994 C2'         0.8910  -36.5440    5.8030 C.3      94   G    0.0670
   2995 O2'         0.5520  -37.5020    4.8160 O.3      94   G   -0.6139
   2996 C1'        -0.3040  -35.6170    6.0630 C.3      94   G    0.0191
   2997 N1          1.4750  -31.3820    3.8810 N.am     94   G   -0.4787
   2998 C2          1.1990  -32.6170    3.3170 C.2      94   G    0.7657
   2999 N2          1.4190  -32.7460    2.0010 N.pl3    94   G   -0.9672
   3000 N3          0.7380  -33.6530    4.0000 N.2      94   G   -0.6323
   3001 C4          0.5740  -33.3630    5.3190 C.ar     94   G    0.1222
   3002 C5          0.8200  -32.1730    5.9780 C.ar     94   G    0.1744
   3003 C6          1.3280  -31.0720    5.2420 C.2      94   G    0.4770
   3004 O6          1.6450  -29.9490    5.6620 O.2      94   G   -0.5597
   3005 N7          0.5200  -32.2870    7.3260 N.ar     94   G   -0.5709
   3006 C8          0.0890  -33.5100    7.4510 C.ar     94   G    0.1374
   3007 N9          0.0760  -34.2150    6.2660 N.ar     94   G    0.0492
   3008 OP1        -0.1730  -37.5680   12.0920 O.co2    94   G   -0.7760
   3009 OP2         0.5470  -35.1020   11.9680 O.co2    94   G   -0.7760
   3010 H5'         0.0106  -38.3882    9.4741 H        94   G    0.0679
   3011 H5''       -1.5502  -37.5454    9.3901 H        94   G    0.0679
   3012 H4'        -0.7680  -38.1508    7.1611 H        94   G    0.1174
   3013 H3'         1.6638  -36.4655    7.8308 H        94   G    0.0615
   3014 H2'         1.7636  -35.9680    5.4950 H        94   G    0.0972
   3015 H1'        -0.9924  -35.6800    5.2203 H        94   G    0.2006
   3016 H1          1.8063  -30.6511    3.2678 H        94   G    0.3424
   3017 H8         -0.2281  -33.9317    8.3934 H        94   G    0.1640
   3018 H21         1.7704  -31.9630    1.4686 H        94   G    0.4364
   3019 H22         1.2334  -33.6262    1.5419 H        94   G    0.4364
   3020 HO2'        1.3030  -38.0786    4.6578 H        94   G    0.4186
   3021 P           3.2220  -38.6220    7.7250 P.3      95   G    1.1662
   3022 C5'         3.7970  -39.4730    5.2960 C.3      95   G    0.0558
   3023 O5'         4.1190  -38.5880    6.3880 O.3      95   G   -0.4989
   3024 C4'         4.2760  -38.9310    3.9630 C.3      95   G    0.1065
   3025 O4'         3.6170  -37.6930    3.6830 O.3      95   G   -0.3548
   3026 C3'         5.7440  -38.5990    3.9000 C.3      95   G    0.2022
   3027 O3'         6.4650  -39.7470    3.5890 O.3      95   G   -0.5246
   3028 C2'         5.8120  -37.5910    2.7700 C.3      95   G    0.0670
   3029 O2'         6.0060  -38.2050    1.5100 O.3      95   G   -0.6139
   3030 C1'         4.4410  -36.9010    2.8500 C.3      95   G    0.0191
   3031 N1          4.4670  -31.8650    1.9280 N.am     95   G   -0.4787
   3032 C2          4.4740  -32.9050    1.0190 C.2      95   G    0.7657
   3033 N2          4.4560  -32.5690   -0.2830 N.pl3    95   G   -0.9672
   3034 N3          4.4710  -34.1900    1.3700 N.2      95   G   -0.6323
   3035 C4          4.4860  -34.3510    2.7300 C.ar     95   G    0.1222
   3036 C5          4.4880  -33.3720    3.7060 C.ar     95   G    0.1744
   3037 C6          4.5080  -32.0180    3.3210 C.2      95   G    0.4770
   3038 O6          4.5260  -31.0270    4.0560 O.2      95   G   -0.5597
   3039 N7          4.5180  -33.9330    4.9700 N.ar     95   G   -0.5709
   3040 C8          4.5110  -35.2170    4.7530 C.ar     95   G    0.1374
   3041 N9          4.4930  -35.5510    3.4170 N.ar     95   G    0.0492
   3042 OP1         3.2790  -39.9740    8.3360 O.co2    95   G   -0.7760
   3043 OP2         3.5820  -37.4370    8.5430 O.co2    95   G   -0.7760
   3044 H5'         4.2715  -40.4380    5.4740 H        95   G    0.0679
   3045 H5''        2.7164  -39.6102    5.2564 H        95   G    0.0679
   3046 H4'         4.0375  -39.6489    3.1782 H        95   G    0.1174
   3047 H3'         6.0879  -38.1615    4.8373 H        95   G    0.0615
   3048 H2'         6.6059  -36.8688    2.9603 H        95   G    0.0972
   3049 H1'         4.0039  -36.8546    1.8526 H        95   G    0.2006
   3050 H1          4.4296  -30.9244    1.5619 H        95   G    0.3424
   3051 H8          4.5186  -35.9505    5.5456 H        95   G    0.1640
   3052 H21         4.4483  -31.5959   -0.5534 H        95   G    0.4364
   3053 H22         4.4502  -33.2898   -0.9905 H        95   G    0.4364
   3054 HO2'        6.8680  -38.6269    1.4885 H        95   G    0.4186
   3055 P           7.6430  -40.2330    4.5400 P.3      96   A    1.1662
   3056 C5'         7.9260  -40.0090    7.1720 C.3      96   A    0.0558
   3057 O5'         7.3130  -39.5360    5.9570 O.3      96   A   -0.4989
   3058 C4'         8.2730  -38.8580    8.1200 C.3      96   A    0.1065
   3059 O4'         8.9650  -37.7950    7.4120 O.3      96   A   -0.3548
   3060 C3'         7.1010  -38.1980    8.8460 C.3      96   A    0.2022
   3061 O3'         7.5140  -37.8210   10.1700 O.3      96   A   -0.5246
   3062 C2'         6.8150  -36.9670    7.9760 C.3      96   A    0.0670
   3063 O2'         6.2210  -35.9080    8.7100 O.3      96   A   -0.6139
   3064 C1'         8.2240  -36.5820    7.4900 C.3      96   A    0.0394
   3065 N1          7.7190  -32.2540    4.6420 N.ar     96   A   -0.7615
   3066 C2          7.6350  -32.4570    5.9730 C.ar     96   A    0.5875
   3067 N3          7.7840  -33.6020    6.6610 N.ar     96   A   -0.6997
   3068 C4          8.0470  -34.6360    5.8280 C.ar     96   A    0.3053
   3069 C5          8.1520  -34.5780    4.4420 C.ar     96   A    0.0515
   3070 C6          7.9560  -33.3200    3.8330 C.ar     96   A    0.7009
   3071 N6          8.0360  -33.1320    2.5150 N.pl3    96   A   -0.9019
   3072 N7          8.4290  -35.8240    3.9170 N.ar     96   A   -0.6073
   3073 C8          8.4700  -36.6080    4.9660 C.ar     96   A    0.2006
   3074 N9          8.2430  -35.9660    6.1560 N.ar     96   A   -0.0251
   3075 OP1         8.9050  -39.6550    4.0140 O.co2    96   A   -0.7760
   3076 OP2         7.4910  -41.6990    4.6920 O.co2    96   A   -0.7760
   3077 H5'         7.2347  -40.6845    7.6759 H        96   A    0.0679
   3078 H5''        8.8374  -40.5525    6.9230 H        96   A    0.0679
   3079 H4'         8.9533  -39.2476    8.8773 H        96   A    0.1174
   3080 H3'         6.2375  -38.8624    8.8798 H        96   A    0.0615
   3081 H2'         6.1848  -37.2404    7.1297 H        96   A    0.0972
   3082 H1'         8.6912  -35.9115    8.2113 H        96   A    0.2007
   3083 H2          7.4187  -31.5808    6.5661 H        96   A    0.0473
   3084 H8          8.6656  -37.6680    4.8991 H        96   A    0.1553
   3085 H61         7.9042  -32.2086    2.1276 H        96   A    0.4115
   3086 H62         8.2284  -33.9131    1.9043 H        96   A    0.4115
   3087 HO2'        5.3452  -36.1719    9.0014 H        96   A    0.4186
   3088 P           7.1950  -38.7530   11.4380 P.3      97   U    1.1662
   3089 C5'         9.6360  -37.7980   11.9540 C.3      97   U    0.0558
   3090 O5'         8.5650  -38.7160   12.2870 O.3      97   U   -0.4989
   3091 C4'        11.0250  -38.4230   12.1980 C.3      97   U    0.1065
   3092 O4'        10.9960  -39.3700   13.3100 O.3      97   U   -0.3548
   3093 C3'        11.6320  -39.1900   11.0240 C.3      97   U    0.2022
   3094 O3'        13.0670  -39.0210   11.0320 O.3      97   U   -0.5246
   3095 C2'        11.2180  -40.6390   11.3290 C.3      97   U    0.0670
   3096 O2'        12.0710  -41.5930   10.7280 O.3      97   U   -0.6139
   3097 C1'        11.3480  -40.6760   12.8540 C.3      97   U    0.0674
   3098 N1         10.4470  -41.7080   13.5530 N.am     97   U    0.0418
   3099 C2         10.8300  -43.0560   13.6040 C.2      97   U    0.4687
   3100 O2         11.8210  -43.5010   13.0540 O.2      97   U   -0.5477
   3101 N3          9.9730  -43.8760   14.3120 N.am     97   U   -0.3549
   3102 C4          8.7990  -43.5050   14.9670 C.2      97   U    0.5952
   3103 O4          8.1310  -44.3570   15.5600 O.2      97   U   -0.5761
   3104 C5          8.4780  -42.0930   14.8890 C.2      97   U   -0.3635
   3105 C6          9.2990  -41.2680   14.2110 C.2      97   U   -0.1126
   3106 OP1         6.9810  -40.1420   10.9610 O.co2    97   U   -0.7760
   3107 OP2         6.1470  -38.0790   12.2410 O.co2    97   U   -0.7760
   3108 H5'         9.5521  -37.5254   10.9020 H        97   U    0.0679
   3109 H5''        9.5376  -36.8998   12.5636 H        97   U    0.0679
   3110 H4'        11.7115  -37.6186   12.4621 H        97   U    0.1174
   3111 H3'        11.2061  -38.8546   10.0784 H        97   U    0.0615
   3112 H2'        10.1839  -40.8108   11.0304 H        97   U    0.0972
   3113 H1'        12.3868  -40.8758   13.1170 H        97   U    0.1824
   3114 H3         10.2246  -44.8529   14.3607 H        97   U    0.3154
   3115 H5          7.5908  -41.7073   15.3691 H        97   U    0.1811
   3116 H6          9.0567  -40.2161   14.1753 H        97   U    0.2188
   3117 HO2'       11.9742  -41.5533    9.7737 H        97   U    0.4186
   3118 P          13.8840  -38.7190    9.6780 P.3      98   G    1.1662
   3119 C5'        13.0040  -39.7870    7.4410 C.3      98   G    0.0558
   3120 O5'        12.7790  -38.8990    8.5250 O.3      98   G   -0.4989
   3121 C4'        12.9710  -39.0480    6.1150 C.3      98   G    0.1065
   3122 O4'        11.7740  -38.2350    6.0320 O.3      98   G   -0.3548
   3123 C3'        14.1130  -38.0740    5.8820 C.3      98   G    0.2022
   3124 O3'        15.2700  -38.7720    5.3880 O.3      98   G   -0.5246
   3125 C2'        13.5080  -37.1460    4.8300 C.3      98   G    0.0670
   3126 O2'        13.6100  -37.6530    3.5100 O.3      98   G   -0.6139
   3127 C1'        12.0420  -37.0690    5.2680 C.3      98   G    0.0191
   3128 N1         11.0110  -32.0540    5.2450 N.am     98   G   -0.4787
   3129 C2         11.2290  -32.9110    4.1800 C.2      98   G    0.7657
   3130 N2         11.1390  -32.3720    2.9530 N.pl3    98   G   -0.9672
   3131 N3         11.4730  -34.2140    4.3120 N.2      98   G   -0.6323
   3132 C4         11.5110  -34.6010    5.6170 C.ar     98   G    0.1222
   3133 C5         11.3340  -33.8250    6.7480 C.ar     98   G    0.1744
   3134 C6         11.0510  -32.4340    6.5960 C.2      98   G    0.4770
   3135 O6         10.8510  -31.5880    7.4840 O.2      98   G   -0.5597
   3136 N7         11.4510  -34.5950    7.8970 N.ar     98   G   -0.5709
   3137 C8         11.7060  -35.7910    7.4530 C.ar     98   G    0.1374
   3138 N9         11.7350  -35.8790    6.0780 N.ar     98   G    0.0492
   3139 OP1        14.9270  -39.7730    9.5480 O.co2    98   G   -0.7760
   3140 OP2        14.2900  -37.2900    9.6910 O.co2    98   G   -0.7760
   3141 H5'        12.2285  -40.5530    7.4412 H        98   G    0.0679
   3142 H5''       13.9774  -40.2621    7.5627 H        98   G    0.0679
   3143 H4'        12.9588  -39.7773    5.3050 H        98   G    0.1174
   3144 H3'        14.3493  -37.5262    6.7942 H        98   G    0.0615
   3145 H2'        13.9694  -36.1603    4.8897 H        98   G    0.0972
   3146 H1'        11.4060  -37.0701    4.3828 H        98   G    0.2006
   3147 H1         10.8089  -31.0869    5.0353 H        98   G    0.3424
   3148 H8         11.8790  -36.6367    8.1020 H        98   G    0.1640
   3149 H21        10.9383  -31.3878    2.8472 H        98   G    0.4364
   3150 H22        11.2721  -32.9509    2.1361 H        98   G    0.4364
   3151 HO2'       13.2290  -38.5335    3.4753 H        98   G    0.4186
   3152 P          16.7680  -38.3230    5.8050 P.3      99   A    1.1662
   3153 C5'        17.0260  -37.1860    3.4370 C.3      99   A    0.0558
   3154 O5'        17.0370  -37.0440    4.8640 O.3      99   A   -0.4989
   3155 C4'        16.5850  -35.9030    2.7500 C.3      99   A    0.1065
   3156 O4'        15.3790  -35.4010    3.3520 O.3      99   A   -0.3548
   3157 C3'        17.5470  -34.7500    2.8680 C.3      99   A    0.2022
   3158 O3'        18.5930  -34.8950    1.9260 O.3      99   A   -0.5246
   3159 C2'        16.6440  -33.5510    2.5670 C.3      99   A    0.0670
   3160 O2'        16.4990  -33.2860    1.1830 O.3      99   A   -0.6139
   3161 C1'        15.3090  -33.9910    3.1680 C.3      99   A    0.0394
   3162 N1         13.6610  -29.6720    5.5480 N.ar     99   A   -0.7615
   3163 C2         13.8550  -29.9600    4.2490 C.ar     99   A    0.5875
   3164 N3         14.2830  -31.1070    3.6960 N.ar     99   A   -0.6997
   3165 C4         14.5290  -32.0440    4.6420 C.ar     99   A    0.3053
   3166 C5         14.3700  -31.8960    6.0160 C.ar     99   A    0.0515
   3167 C6         13.9160  -30.6290    6.4760 C.ar     99   A    0.7009
   3168 N6         13.7140  -30.3420    7.7670 N.pl3    99   A   -0.9019
   3169 N7         14.7000  -33.0700    6.6770 N.ar     99   A   -0.6073
   3170 C8         15.0710  -33.8850    5.7110 C.ar     99   A    0.2006
   3171 N9         14.9910  -33.3370    4.4530 N.ar     99   A   -0.0251
   3172 OP1        17.6870  -39.4230    5.4080 O.co2    99   A   -0.7760
   3173 OP2        16.7560  -37.8530    7.2180 O.co2    99   A   -0.7760
   3174 H5'        18.0306  -37.4406    3.0993 H        99   A    0.0679
   3175 H5''       16.3430  -37.9902    3.1636 H        99   A    0.0679
   3176 H4'        16.3998  -36.1076    1.6955 H        99   A    0.1174
   3177 H3'        17.9472  -34.6853    3.8798 H        99   A    0.0615
   3178 H2'        17.0134  -32.6643    3.0822 H        99   A    0.0972
   3179 H1'        14.5141  -33.7695    2.4559 H        99   A    0.2007
   3180 H2         13.6372  -29.1607    3.5562 H        99   A    0.0473
   3181 H8         15.4084  -34.8949    5.8915 H        99   A    0.1553
   3182 H61        13.3842  -29.4258    8.0351 H        99   A    0.4115
   3183 H62        13.8913  -31.0416    8.4736 H        99   A    0.4115
   3184 HO2'       17.3438  -33.0111    0.8191 H        99   A    0.4186
   3185 P          20.1170  -34.7540    2.3980 P.3     100   G    1.1662
   3186 C5'        20.0400  -32.3390    1.3470 C.3     100   G    0.0558
   3187 O5'        20.3070  -33.1600    2.4870 O.3     100   G   -0.4989
   3188 C4'        19.5690  -30.9590    1.7630 C.3     100   G    0.1065
   3189 O4'        18.3680  -31.0600    2.5490 O.3     100   G   -0.3548
   3190 C3'        20.5180  -30.1970    2.6590 C.3     100   G    0.2022
   3191 O3'        21.5390  -29.6060    1.8830 O.3     100   G   -0.5246
   3192 C2'        19.5840  -29.1570    3.2810 C.3     100   G    0.0670
   3193 O2'        19.3210  -28.0640    2.4190 O.3     100   G   -0.6139
   3194 C1'        18.3120  -29.9760    3.4730 C.3     100   G    0.0191
   3195 N1         16.7720  -29.0230    8.2710 N.am    100   G   -0.4787
   3196 C2         16.8100  -28.1730    7.1810 C.2     100   G    0.7657
   3197 N2         16.3670  -26.9240    7.3850 N.pl3   100   G   -0.9672
   3198 N3         17.2510  -28.5290    5.9710 N.2     100   G   -0.6323
   3199 C4         17.6520  -29.8320    5.9330 C.ar    100   G    0.1222
   3200 C5         17.6440  -30.7590    6.9610 C.ar    100   G    0.1744
   3201 C6         17.1760  -30.3640    8.2490 C.2     100   G    0.4770
   3202 O6         17.1010  -31.0480    9.2810 O.2     100   G   -0.5597
   3203 N7         18.1240  -31.9840    6.5210 N.ar    100   G   -0.5709
   3204 C8         18.4100  -31.7840    5.2620 C.ar    100   G    0.1374
   3205 N9         18.1450  -30.5040    4.8310 N.ar    100   G    0.0492
   3206 OP1        20.9820  -35.2920    1.3180 O.co2   100   G   -0.7760
   3207 OP2        20.2270  -35.3070    3.7730 O.co2   100   G   -0.7760
   3208 H5'        20.9521  -32.2407    0.7584 H       100   G    0.0679
   3209 H5''       19.2697  -32.8118    0.7377 H       100   G    0.0679
   3210 H4'        19.3647  -30.3664    0.8713 H       100   G    0.1174
   3211 H3'        20.9389  -30.8492    3.4242 H       100   G    0.0615
   3212 H2'        19.9714  -28.8111    4.2393 H       100   G    0.0972
   3213 H1'        17.4521  -29.3516    3.2305 H       100   G    0.2006
   3214 H1         16.4287  -28.6506    9.1448 H       100   G    0.3424
   3215 H8         18.8163  -32.5512    4.6196 H       100   G    0.1640
   3216 H21        16.0314  -26.6499    8.2973 H       100   G    0.4364
   3217 H22        16.3689  -26.2573    6.6263 H       100   G    0.4364
   3218 HO2'       18.3792  -28.0172    2.2390 H       100   G    0.4186
   3219 P          23.0770  -29.7600    2.2970 P.3     101   A    1.1662
   3220 C5'        23.4040  -27.4030    1.1660 C.3     101   A    0.0558
   3221 O5'        23.5600  -28.2330    2.3270 O.3     101   A   -0.4989
   3222 C4'        22.6490  -26.1230    1.4920 C.3     101   A    0.1065
   3223 O4'        21.4830  -26.4300    2.2810 O.3     101   A   -0.3548
   3224 C3'        23.4140  -25.1240    2.3330 C.3     101   A    0.2022
   3225 O3'        24.2610  -24.3290    1.5160 O.3     101   A   -0.5246
   3226 C2'        22.2970  -24.3030    2.9830 C.3     101   A    0.0670
   3227 O2'        21.8380  -23.2300    2.1780 O.3     101   A   -0.6139
   3228 C1'        21.1970  -25.3460    3.1580 C.3     101   A    0.0394
   3229 N1         18.9130  -24.9490    7.7830 N.ar    101   A   -0.7615
   3230 C2         18.7440  -24.2560    6.6470 C.ar    101   A    0.5875
   3231 N3         19.3910  -24.3880    5.4820 N.ar    101   A   -0.6997
   3232 C4         20.2870  -25.4010    5.5330 C.ar    101   A    0.3053
   3233 C5         20.5490  -26.2170    6.6190 C.ar    101   A    0.0515
   3234 C6         19.8160  -25.9640    7.8000 C.ar    101   A    0.7009
   3235 N6         19.9760  -26.6680    8.9220 N.pl3   101   A   -0.9019
   3236 N7         21.5190  -27.1530    6.3060 N.ar    101   A   -0.6073
   3237 C8         21.8170  -26.8950    5.0570 C.ar    101   A    0.2006
   3238 N9         21.1030  -25.8600    4.5210 N.ar    101   A   -0.0251
   3239 OP1        23.7690  -30.4700    1.1980 O.co2   101   A   -0.7760
   3240 OP2        23.1510  -30.2940    3.6800 O.co2   101   A   -0.7760
   3241 H5'        22.8511  -27.9565    0.4070 H       101   A    0.0679
   3242 H5''       24.3887  -27.1471    0.7750 H       101   A    0.0679
   3243 H4'        22.3372  -25.6449    0.5634 H       101   A    0.1174
   3244 H3'        23.9981  -25.6393    3.0955 H       101   A    0.0615
   3245 H2'        22.6207  -23.9316    3.9553 H       101   A    0.0972
   3246 H1'        20.2406  -24.9046    2.8777 H       101   A    0.2007
   3247 H2         17.9844  -23.4888    6.6758 H       101   A    0.0473
   3248 H8         22.5590  -27.4493    4.5014 H       101   A    0.1553
   3249 HO2'       22.0367  -23.4128    1.2567 H       101   A    0.4186
   3250 H61        19.5350  -26.3842    9.7852 H       101   A    0.4115
   3251 H62        20.5486  -27.4999    8.9079 H       101   A    0.4115
   3252 P          25.7660  -24.0310    1.9780 P.3     102   G    1.1662
   3253 C5'        26.6580  -24.2520    4.4170 C.3     102   G    0.0558
   3254 O5'        25.8530  -24.7710    3.3960 O.3     102   G   -0.4989
   3255 C4'        25.8430  -23.9910    5.6610 C.3     102   G    0.1065
   3256 O4'        24.6950  -24.8670    5.6960 O.3     102   G   -0.3548
   3257 C3'        26.5770  -24.2690    6.9450 C.3     102   G    0.2022
   3258 O3'        27.3280  -23.1500    7.3040 O.3     102   G   -0.5246
   3259 C2'        25.4440  -24.5280    7.9180 C.3     102   G    0.0670
   3260 O2'        24.8890  -23.3470    8.4570 O.3     102   G   -0.6139
   3261 C1'        24.4290  -25.2530    7.0350 C.3     102   G    0.0191
   3262 N1         24.0730  -29.3240   10.0960 N.am    102   G   -0.4787
   3263 C2         23.8080  -27.9950   10.3690 C.2     102   G    0.7657
   3264 N2         23.4510  -27.6990   11.6240 N.pl3   102   G   -0.9672
   3265 N3         23.9170  -27.0210    9.4770 N.2     102   G   -0.6323
   3266 C4         24.3170  -27.4790    8.2580 C.ar    102   G    0.1222
   3267 C5         24.6230  -28.7720    7.8870 C.ar    102   G    0.1744
   3268 C6         24.5110  -29.8140    8.8540 C.2     102   G    0.4770
   3269 O6         24.6860  -31.0380    8.6930 O.2     102   G   -0.5597
   3270 N7         25.0060  -28.8230    6.5530 N.ar    102   G   -0.5709
   3271 C8         24.9560  -27.5800    6.1580 C.ar    102   G    0.1374
   3272 N9         24.5320  -26.7090    7.1340 N.ar    102   G    0.0492
   3273 OP1        25.8970  -22.5640    2.1690 O.co2   102   G   -0.7760
   3274 OP2        26.6680  -24.7410    1.0410 O.co2   102   G   -0.7760
   3275 H5'        27.4460  -24.9682    4.6498 H       102   G    0.0679
   3276 H5''       27.1087  -23.3185    4.0801 H       102   G    0.0679
   3277 H4'        25.5044  -22.9549    5.6578 H       102   G    0.1174
   3278 H3'        27.2132  -25.1486    6.8463 H       102   G    0.0615
   3279 H2'        25.7807  -25.1848    8.7201 H       102   G    0.0972
   3280 H1'        23.4212  -24.9410    7.3092 H       102   G    0.2006
   3281 H1         23.9424  -29.9909   10.8432 H       102   G    0.3424
   3282 H8         25.2223  -27.2655    5.1597 H       102   G    0.1640
   3283 H21        23.3759  -28.4327   12.3141 H       102   G    0.4364
   3284 H22        23.2566  -26.7419   11.8813 H       102   G    0.4364
   3285 HO2'       24.2060  -23.0165    7.8689 H       102   G    0.4186
   3286 P          28.7550  -23.3400    7.9900 P.3     103   A    1.1662
   3287 C5'        27.8080  -22.9540   10.4040 C.3     103   A    0.0558
   3288 O5'        28.3660  -23.8520    9.4510 O.3     103   A   -0.4989
   3289 C4'        27.3030  -23.7180   11.6000 C.3     103   A    0.1065
   3290 O4'        26.5190  -24.8140   11.1220 O.3     103   A   -0.3548
   3291 C3'        28.3770  -24.3870   12.4330 C.3     103   A    0.2022
   3292 O3'        28.9260  -23.4870   13.3710 O.3     103   A   -0.5246
   3293 C2'        27.6160  -25.5200   13.1040 C.3     103   A    0.0670
   3294 O2'        27.0280  -25.1660   14.3400 O.3     103   A   -0.6139
   3295 C1'        26.5440  -25.8580   12.0740 C.3     103   A    0.0394
   3296 N1         26.7090  -30.9600   12.5320 N.ar    103   A   -0.7615
   3297 C2         26.3840  -29.9840   13.4040 C.ar    103   A    0.5875
   3298 N3         26.3380  -28.6670   13.2060 N.ar    103   A   -0.6997
   3299 C4         26.7230  -28.3620   11.9500 C.ar    103   A    0.3053
   3300 C5         27.1100  -29.2430   10.9520 C.ar    103   A    0.0515
   3301 C6         27.0810  -30.6190   11.2730 C.ar    103   A    0.7009
   3302 N6         27.4450  -31.5860   10.4200 N.pl3   103   A   -0.9019
   3303 N7         27.4190  -28.5630    9.7910 N.ar    103   A   -0.6073
   3304 C8         27.2620  -27.3040   10.1180 C.ar    103   A    0.2006
   3305 N9         26.8010  -27.1190   11.3950 N.ar    103   A   -0.0251
   3306 OP1        29.3840  -22.0030    8.0870 O.co2   103   A   -0.7760
   3307 OP2        29.4710  -24.4460    7.3050 O.co2   103   A   -0.7760
   3308 H5'        28.5733  -22.2472   10.7246 H       103   A    0.0679
   3309 H5''       26.9815  -22.4096    9.9472 H       103   A    0.0679
   3310 H4'        26.6934  -23.0684   12.2281 H       103   A    0.1174
   3311 H3'        29.1605  -24.7869   11.7893 H       103   A    0.0615
   3312 H2'        28.2766  -26.3759   13.2423 H       103   A    0.0972
   3313 H1'        25.5754  -25.9111   12.5711 H       103   A    0.2007
   3314 H2         26.1256  -30.3150   14.3990 H       103   A    0.0473
   3315 H8         27.4760  -26.4879    9.4437 H       103   A    0.1553
   3316 H61        27.4213  -32.5525   10.7122 H       103   A    0.4115
   3317 H62        27.7431  -31.3484    9.4847 H       103   A    0.4115
   3318 HO2'       27.7173  -24.9570   14.9746 H       103   A    0.4186
   3319 P          30.4920  -23.1350   13.3150 P.3     104   A    1.1662
   3320 C5'        31.4260  -25.1500   14.6630 C.3     104   A    0.0558
   3321 O5'        31.0540  -23.7990   14.6530 O.3     104   A   -0.4989
   3322 C4'        30.7250  -25.8720   15.7820 C.3     104   A    0.1065
   3323 O4'        29.5260  -26.4980   15.2670 O.3     104   A   -0.3548
   3324 C3'        31.5380  -26.9910   16.3940 C.3     104   A    0.2022
   3325 O3'        32.2840  -26.4920   17.5060 O.3     104   A   -0.5246
   3326 C2'        30.4650  -28.0160   16.7860 C.3     104   A    0.0670
   3327 O2'        29.8230  -27.7190   18.0150 O.3     104   A   -0.6139
   3328 C1'        29.4820  -27.8660   15.6350 C.3     104   A    0.0394
   3329 N1         29.5740  -32.6040   13.5030 N.ar    104   A   -0.7615
   3330 C2         29.2410  -32.1850   14.7410 C.ar    104   A    0.5875
   3331 N3         29.2230  -30.9350   15.2310 N.ar    104   A   -0.6997
   3332 C4         29.6610  -30.0490   14.3100 C.ar    104   A    0.3053
   3333 C5         30.0640  -30.3330   13.0080 C.ar    104   A    0.0515
   3334 C6         30.0030  -31.6850   12.5960 C.ar    104   A    0.7009
   3335 N6         30.3720  -32.0950   11.3750 N.pl3   104   A   -0.9019
   3336 N7         30.4630  -29.1850   12.3550 N.ar    104   A   -0.6073
   3337 C8         30.2680  -28.2380   13.2400 C.ar    104   A    0.2006
   3338 N9         29.8000  -28.6840   14.4510 N.ar    104   A   -0.0251
   3339 OP1        30.6310  -21.6570   13.4210 O.co2   104   A   -0.7760
   3340 OP2        31.0990  -23.8580   12.1610 O.co2   104   A   -0.7760
   3341 H5'        31.1513  -25.6063   13.7120 H       104   A    0.0679
   3342 H5''       32.5043  -25.2270   14.8027 H       104   A    0.0679
   3343 H4'        30.4536  -25.1569   16.5585 H       104   A    0.1174
   3344 H3'        32.2113  -27.4171   15.6502 H       104   A    0.0615
   3345 H2'        30.8837  -29.0222   16.8048 H       104   A    0.0972
   3346 H1'        28.4792  -28.1126   15.9839 H       104   A    0.2007
   3347 H2         28.9488  -32.9611   15.4329 H       104   A    0.0473
   3348 H8         30.4593  -27.1952   13.0339 H       104   A    0.1553
   3349 H61        30.3194  -33.0744   11.1338 H       104   A    0.4115
   3350 H62        30.7028  -31.4247   10.6958 H       104   A    0.4115
   3351 HO2'       30.4498  -27.8160   18.7356 H       104   A    0.4186
   3352 P          33.8940  -26.4830   17.4680 P.3     105   G    1.1662
   3353 C5'        33.7700  -28.4340   19.2070 C.3     105   G    0.0558
   3354 O5'        34.2660  -27.9570   17.9620 O.3     105   G   -0.4989
   3355 C4'        33.4300  -29.9090   19.1300 C.3     105   G    0.1065
   3356 O4'        32.3900  -30.1390   18.1410 O.3     105   G   -0.3548
   3357 C3'        34.5540  -30.8060   18.6710 C.3     105   G    0.2022
   3358 O3'        35.4840  -31.0300   19.7110 O.3     105   G   -0.5246
   3359 C2'        33.7830  -32.0600   18.2850 C.3     105   G    0.0670
   3360 O2'        33.3640  -32.8240   19.4040 O.3     105   G   -0.6139
   3361 C1'        32.5700  -31.4380   17.5710 C.3     105   G    0.0191
   3362 N1         33.0600  -33.9740   13.1340 N.am    105   G   -0.4787
   3363 C2         32.8030  -34.4550   14.4060 C.2     105   G    0.7657
   3364 N2         32.6790  -35.7770   14.5360 N.pl3   105   G   -0.9672
   3365 N3         32.6900  -33.6880   15.4830 N.2     105   G   -0.6323
   3366 C4         32.8480  -32.3670   15.1990 C.ar    105   G    0.1222
   3367 C5         33.1220  -31.7820   13.9730 C.ar    105   G    0.1744
   3368 C6         33.2500  -32.6210   12.8180 C.2     105   G    0.4770
   3369 O6         33.4580  -32.2850   11.6400 O.2     105   G   -0.5597
   3370 N7         33.2150  -30.3960   14.1010 N.ar    105   G   -0.5709
   3371 C8         33.0270  -30.1760   15.3820 C.ar    105   G    0.1374
   3372 N9         32.7600  -31.3210   16.1080 N.ar    105   G    0.0492
   3373 OP1        34.3530  -25.4980   18.4730 O.co2   105   G   -0.7760
   3374 OP2        34.3390  -26.3590   16.0590 O.co2   105   G   -0.7760
   3375 H5'        32.8719  -27.8751   19.4699 H       105   G    0.0679
   3376 H5''       34.5262  -28.2802   19.9768 H       105   G    0.0679
   3377 H4'        33.0779  -30.2466   20.1048 H       105   G    0.1174
   3378 H3'        35.0510  -30.3799   17.7995 H       105   G    0.0615
   3379 H2'        34.3638  -32.6727   17.5955 H       105   G    0.0972
   3380 H1'        31.6861  -32.0436   17.7711 H       105   G    0.2006
   3381 H1         33.1145  -34.6444   12.3805 H       105   G    0.3424
   3382 H8         33.0764  -29.1928   15.8262 H       105   G    0.1640
   3383 H21        32.7677  -36.3746   13.7266 H       105   G    0.4364
   3384 H22        32.4964  -36.1802   15.4438 H       105   G    0.4364
   3385 HO2'       34.1313  -33.2045   19.8376 H       105   G    0.4186
   3386 P          37.0510  -31.0830   19.3700 P.3     106   A    1.1662
   3387 C5'        37.3040  -33.7010   19.6480 C.3     106   A    0.0558
   3388 O5'        37.2320  -32.5680   18.7710 O.3     106   A   -0.4989
   3389 C4'        36.9490  -34.9960   18.9280 C.3     106   A    0.1065
   3390 O4'        35.8290  -34.7810   18.0280 O.3     106   A   -0.3548
   3391 C3'        38.0350  -35.5720   18.0400 C.3     106   A    0.2022
   3392 O3'        38.9780  -36.3080   18.8050 O.3     106   A   -0.5246
   3393 C2'        37.2230  -36.4660   17.1020 C.3     106   A    0.0670
   3394 O2'        36.8680  -37.7150   17.6770 O.3     106   A   -0.6139
   3395 C1'        35.9780  -35.6020   16.8700 C.3     106   A    0.0394
   3396 N1         36.4070  -35.3810   11.7080 N.ar    106   A   -0.7615
   3397 C2         36.2810  -36.4220   12.5500 C.ar    106   A    0.5875
   3398 N3         36.1350  -36.4120   13.8790 N.ar    106   A   -0.6997
   3399 C4         36.1880  -35.1460   14.3620 C.ar    106   A    0.3053
   3400 C5         36.3450  -33.9780   13.6220 C.ar    106   A    0.0515
   3401 C6         36.4590  -34.1240   12.2170 C.ar    106   A    0.7009
   3402 N6         36.6200  -33.0940   11.3810 N.pl3   106   A   -0.9019
   3403 N7         36.3500  -32.8650   14.4510 N.ar    106   A   -0.6073
   3404 C8         36.2050  -33.3690   15.6560 C.ar    106   A    0.2006
   3405 N9         36.0920  -34.7390   15.6810 N.ar    106   A   -0.0251
   3406 OP1        37.7960  -30.9720   20.6430 O.co2   106   A   -0.7760
   3407 OP2        37.3250  -30.1140   18.2790 O.co2   106   A   -0.7760
   3408 H5'        38.3185  -33.7810   20.0385 H       106   A    0.0679
   3409 H5''       36.6131  -33.5537   20.4781 H       106   A    0.0679
   3410 H4'        36.6665  -35.7442   19.6686 H       106   A    0.1174
   3411 H3'        38.5314  -34.7799   17.4795 H       106   A    0.0615
   3412 H2'        37.7588  -36.6184   16.1651 H       106   A    0.0972
   3413 H1'        35.1044  -36.2458   16.7677 H       106   A    0.2007
   3414 H2         36.3004  -37.3990   12.0901 H       106   A    0.0473
   3415 H8         36.1771  -32.7607   16.5480 H       106   A    0.1553
   3416 H61        36.6982  -33.2575   10.3874 H       106   A    0.4115
   3417 H62        36.6635  -32.1520   11.7427 H       106   A    0.4115
   3418 HO2'       36.2723  -38.1815   17.0861 H       106   A    0.4186
   3419 P          40.5170  -36.3570   18.3460 P.3     107   U    1.1662
   3420 C5'        40.2060  -38.6920   17.1240 C.3     107   U    0.0558
   3421 O5'        40.4800  -37.2790   17.0280 O.3     107   U   -0.4989
   3422 C4'        40.3320  -39.3840   15.7710 C.3     107   U    0.1065
   3423 O4'        39.2560  -38.9520   14.8840 O.3     107   U   -0.3548
   3424 C3'        41.5960  -39.0670   14.9880 C.3     107   U    0.2022
   3425 O3'        42.7040  -39.8170   15.4520 O.3     107   U   -0.5246
   3426 C2'        41.1710  -39.4450   13.5770 C.3     107   U    0.0670
   3427 O2'        41.1420  -40.8410   13.3530 O.3     107   U   -0.6139
   3428 C1'        39.7530  -38.8650   13.5450 C.3     107   U    0.0674
   3429 N1         39.7280  -37.4030   13.0730 N.am    107   U    0.0418
   3430 C2         39.9150  -37.1160   11.7160 C.2     107   U    0.4687
   3431 O2         40.0200  -37.9740   10.8470 O.2     107   U   -0.5477
   3432 N3         39.9600  -35.7690   11.4130 N.am    107   U   -0.3549
   3433 C4         39.8530  -34.7000   12.3000 C.2     107   U    0.5952
   3434 O4         39.8890  -33.5450   11.8750 O.2     107   U   -0.5761
   3435 C5         39.6980  -35.0740   13.6880 C.2     107   U   -0.3635
   3436 C6         39.6360  -36.3750   14.0130 C.2     107   U   -0.1126
   3437 OP1        41.2910  -37.0570   19.4030 O.co2   107   U   -0.7760
   3438 OP2        40.9200  -34.9900   17.9310 O.co2   107   U   -0.7760
   3439 H5'        39.1917  -38.8304   17.4983 H       107   U    0.0679
   3440 H5''       40.9090  -39.1449   17.8231 H       107   U    0.0679
   3441 H4'        40.2634  -40.4623   15.9149 H       107   U    0.1174
   3442 H3'        41.8145  -38.0005   15.0421 H       107   U    0.0615
   3443 H2'        41.8044  -38.9511   12.8401 H       107   U    0.0972
   3444 H1'        39.1289  -39.4693   12.8866 H       107   U    0.1824
   3445 H3         40.0845  -35.5326   10.4390 H       107   U    0.3154
   3446 H5         39.6329  -34.3157   14.4542 H       107   U    0.1811
   3447 H6         39.5087  -36.6393   15.0524 H       107   U    0.2188
   3448 HO2'       42.0368  -41.1879   13.3762 H       107   U    0.4186
   3449 P          44.1500  -39.1210   15.5630 P.3     108   U    1.1662
   3450 C5'        45.1110  -40.1620   13.3320 C.3     108   U    0.0558
   3451 O5'        44.6130  -39.0060   14.0280 O.3     108   U   -0.4989
   3452 C4'        44.9020  -40.0520   11.8260 C.3     108   U    0.1065
   3453 O4'        43.7070  -39.2870   11.5400 O.3     108   U   -0.3548
   3454 C3'        46.0100  -39.3460   11.0680 C.3     108   U    0.2022
   3455 O3'        47.0620  -40.2710   10.7600 O.3     108   U   -0.5246
   3456 C2'        45.2880  -38.8510    9.8090 C.3     108   U    0.0670
   3457 O2'        45.2530  -39.8190    8.7710 O.3     108   U   -0.6139
   3458 C1'        43.8690  -38.5680   10.3260 C.3     108   U    0.0674
   3459 N1         43.5600  -37.0730   10.5630 N.am    108   U    0.0418
   3460 C2         43.1770  -36.2670    9.4860 C.2     108   U    0.4687
   3461 O2         43.0750  -36.6730    8.3400 O.2     108   U   -0.5477
   3462 N3         42.9180  -34.9490    9.8100 N.am    108   U   -0.3549
   3463 C4         43.0010  -34.3610   11.0650 C.2     108   U    0.5952
   3464 O4         42.7390  -33.1710   11.1970 O.2     108   U   -0.5761
   3465 C5         43.3900  -35.2550   12.1340 C.2     108   U   -0.3635
   3466 C6         43.6520  -36.5450   11.8510 C.2     108   U   -0.1126
   3467 OP1        45.0520  -40.0570   16.2750 O.co2   108   U   -0.7760
   3468 OP2        43.9640  -37.7510   16.0880 O.co2   108   U   -0.7760
   3469 H5'        46.1776  -40.2621   13.5333 H       108   U    0.0679
   3470 H5''       44.5945  -41.0488   13.6994 H       108   U    0.0679
   3471 H4'        44.7817  -41.0546   11.4157 H       108   U    0.1174
   3472 H3'        46.3948  -38.5054   11.6454 H       108   U    0.0615
   3473 H2'        45.7477  -37.9305    9.4493 H       108   U    0.0972
   3474 H1'        43.1549  -38.9554    9.5993 H       108   U    0.1824
   3475 H3         42.6372  -34.3465    9.0496 H       108   U    0.3154
   3476 H5         43.4693  -34.8916   13.1479 H       108   U    0.1811
   3477 H6         43.9466  -37.2004   12.6573 H       108   U    0.2188
   3478 HO2'       46.1451  -39.9857    8.4581 H       108   U    0.4186
   3479 P          48.5960  -39.7930   10.7560 P.3     109   C    1.1662
   3480 C5'        48.7470  -39.6850    8.1200 C.3     109   C    0.0558
   3481 O5'        48.7110  -38.9820    9.3750 O.3     109   C   -0.4989
   3482 C4'        48.5600  -38.7380    6.9380 C.3     109   C    0.1065
   3483 O4'        47.3500  -37.9630    7.1120 O.3     109   C   -0.3548
   3484 C3'        49.6620  -37.7060    6.7430 C.3     109   C    0.2022
   3485 O3'        50.7390  -38.2700    5.9900 O.3     109   C   -0.6541
   3486 C2'        48.9440  -36.5940    5.9690 C.3     109   C    0.0670
   3487 O2'        48.9900  -36.7830    4.5650 O.3     109   C   -0.6139
   3488 C1'        47.4950  -36.7010    6.4730 C.3     109   C    0.0066
   3489 N1         47.0830  -35.5890    7.4390 N.am    109   C   -0.0484
   3490 C2         46.6180  -34.3470    6.9360 C.2     109   C    0.7538
   3491 O2         46.5600  -34.1640    5.7090 O.2     109   C   -0.6252
   3492 N3         46.2410  -33.3750    7.8230 N.2     109   C   -0.7584
   3493 C4         46.3190  -33.5990    9.1470 C.2     109   C    0.8185
   3494 N4         45.9460  -32.6140    9.9730 N.pl3   109   C   -0.9530
   3495 C5         46.7880  -34.8460    9.6760 C.2     109   C   -0.5215
   3496 C6         47.1600  -35.7970    8.8000 C.2     109   C    0.0053
   3497 OP1        49.4560  -41.0060   10.6830 O.co2   109   C   -0.7760
   3498 OP2        48.7870  -38.8270   11.8680 O.co2   109   C   -0.7760
   3499 H5'        49.7105  -40.1853    8.0228 H       109   C    0.0679
   3500 H5''       47.9539  -40.4326    8.1070 H       109   C    0.0679
   3501 H4'        48.4690  -39.3292    6.0268 H       109   C    0.1174
   3502 H3'        50.0175  -37.3369    7.7050 H       109   C    0.0615
   3503 H2'        49.3627  -35.6225    6.2315 H       109   C    0.0972
   3504 H1'        46.8280  -36.6729    5.6114 H       109   C    0.2029
   3505 H5         46.8409  -35.0163   10.7412 H       109   C    0.1928
   3506 H6         47.5265  -36.7429    9.1705 H       109   C    0.1958
   3507 H41        45.6173  -31.7364    9.5964 H       109   C    0.4234
   3508 H42        45.9932  -32.7484   10.9729 H       109   C    0.4234
   3509 HO3'       51.4276  -37.6114    5.8730 H       109   C    0.4376
   3510 HO2'       49.8983  -36.7141    4.2620 H       109   C    0.4186
@<TRIPOS>BOND
     1    1    2 1
     2    1    3 1
     3    3    5 1
     4    3    4 1
     5    4    9 1
     6    5    7 1
     7    5    6 1
     8    7    9 1
     9    7    8 1
    10    9   20 1
    11   10   11 1
    12   10   16 am
    13   11   12 2
    14   11   13 2
    15   13   14 1
    16   14   20 ar
    17   14   15 ar
    18   15   18 ar
    19   15   16 1
    20   16   17 2
    21   18   19 ar
    22   19   20 ar
    23   33   55 1
    24   33   35 1
    25   33   54 1
    26   34   36 1
    27   34   35 1
    28   36   38 1
    29   36   37 1
    30   37   42 1
    31   38   40 1
    32   38   39 1
    33   40   42 1
    34   40   41 1
    35   42   53 1
    36   43   49 am
    37   43   44 1
    38   44   45 2
    39   44   46 2
    40   46   47 1
    41   47   53 ar
    42   47   48 ar
    43   48   49 1
    44   48   51 ar
    45   49   50 2
    46   51   52 ar
    47   52   53 ar
    48   33    6 1
    49   67   87 1
    50   67   88 1
    51   67   69 1
    52   68   70 1
    53   68   69 1
    54   70   71 1
    55   70   72 1
    56   71   76 1
    57   72   73 1
    58   72   74 1
    59   74   76 1
    60   74   75 1
    61   76   86 1
    62   77   78 ar
    63   77   82 ar
    64   78   79 ar
    65   79   80 ar
    66   80   86 ar
    67   80   81 ar
    68   81   84 ar
    69   81   82 ar
    70   82   83 1
    71   84   85 ar
    72   85   86 ar
    73   39   67 1
    74  100  118 1
    75  100  119 1
    76  100  102 1
    77  101  102 1
    78  101  103 1
    79  103  105 1
    80  103  104 1
    81  104  109 1
    82  105  107 1
    83  105  106 1
    84  107  108 1
    85  107  109 1
    86  109  110 1
    87  110  111 am
    88  110  117 1
    89  111  112 2
    90  111  113 am
    91  113  114 am
    92  114  116 1
    93  114  115 2
    94  116  117 2
    95   73  100 1
    96  130  148 1
    97  130  149 1
    98  130  132 1
    99  131  132 1
   100  131  133 1
   101  133  135 1
   102  133  134 1
   103  134  139 1
   104  135  137 1
   105  135  136 1
   106  137  138 1
   107  137  139 1
   108  139  140 1
   109  140  141 am
   110  140  147 1
   111  141  143 1
   112  141  142 2
   113  143  144 2
   114  144  146 2
   115  144  145 2
   116  146  147 2
   117  106  130 1
   118  161  179 1
   119  161  180 1
   120  161  163 1
   121  162  163 1
   122  162  164 1
   123  164  166 1
   124  164  165 1
   125  165  170 1
   126  166  168 1
   127  166  167 1
   128  168  169 1
   129  168  170 1
   130  170  171 1
   131  171  172 am
   132  171  178 1
   133  172  173 2
   134  172  174 am
   135  174  175 am
   136  175  177 1
   137  175  176 2
   138  177  178 2
   139  136  161 1
   140  191  209 1
   141  191  210 1
   142  191  193 1
   143  192  193 1
   144  192  194 1
   145  194  196 1
   146  194  195 1
   147  195  200 1
   148  196  198 1
   149  196  197 1
   150  198  199 1
   151  198  200 1
   152  200  201 1
   153  201  202 am
   154  201  208 1
   155  202  203 2
   156  202  204 am
   157  204  205 am
   158  205  207 1
   159  205  206 2
   160  207  208 2
   161  167  191 1
   162  221  239 1
   163  221  240 1
   164  221  223 1
   165  222  223 1
   166  222  224 1
   167  224  226 1
   168  224  225 1
   169  225  230 1
   170  226  228 1
   171  226  227 1
   172  228  229 1
   173  228  230 1
   174  230  231 1
   175  231  232 am
   176  231  238 1
   177  232  234 1
   178  232  233 2
   179  234  235 2
   180  235  237 2
   181  235  236 2
   182  237  238 2
   183  197  221 1
   184  252  274 1
   185  252  254 1
   186  252  273 1
   187  253  255 1
   188  253  254 1
   189  255  257 1
   190  255  256 1
   191  256  261 1
   192  257  259 1
   193  257  258 1
   194  259  261 1
   195  259  260 1
   196  261  272 1
   197  262  268 am
   198  262  263 1
   199  263  264 2
   200  263  265 2
   201  265  266 1
   202  266  272 ar
   203  266  267 ar
   204  267  268 1
   205  267  270 ar
   206  268  269 2
   207  270  271 ar
   208  271  272 ar
   209  227  252 1
   210  286  308 1
   211  286  288 1
   212  286  307 1
   213  287  289 1
   214  287  288 1
   215  289  291 1
   216  289  290 1
   217  290  295 1
   218  291  293 1
   219  291  292 1
   220  293  295 1
   221  293  294 1
   222  295  306 1
   223  296  302 am
   224  296  297 1
   225  297  298 2
   226  297  299 2
   227  299  300 1
   228  300  306 ar
   229  300  301 ar
   230  301  302 1
   231  301  304 ar
   232  302  303 2
   233  304  305 ar
   234  305  306 ar
   235  258  286 1
   236  320  342 1
   237  320  322 1
   238  320  341 1
   239  321  323 1
   240  321  322 1
   241  323  325 1
   242  323  324 1
   243  324  329 1
   244  325  327 1
   245  325  326 1
   246  327  329 1
   247  327  328 1
   248  329  340 1
   249  330  336 am
   250  330  331 1
   251  331  332 2
   252  331  333 2
   253  333  334 1
   254  334  340 ar
   255  334  335 ar
   256  335  336 1
   257  335  338 ar
   258  336  337 2
   259  338  339 ar
   260  339  340 ar
   261  292  320 1
   262  354  376 1
   263  354  356 1
   264  354  375 1
   265  355  357 1
   266  355  356 1
   267  357  359 1
   268  357  358 1
   269  358  363 1
   270  359  361 1
   271  359  360 1
   272  361  363 1
   273  361  362 1
   274  363  374 1
   275  364  370 am
   276  364  365 1
   277  365  366 2
   278  365  367 2
   279  367  368 1
   280  368  374 ar
   281  368  369 ar
   282  369  370 1
   283  369  372 ar
   284  370  371 2
   285  372  373 ar
   286  373  374 ar
   287  326  354 1
   288  388  406 1
   289  388  407 1
   290  388  390 1
   291  389  390 1
   292  389  391 1
   293  391  393 1
   294  391  392 1
   295  392  397 1
   296  393  395 1
   297  393  394 1
   298  395  396 1
   299  395  397 1
   300  397  398 1
   301  398  399 am
   302  398  405 1
   303  399  401 1
   304  399  400 2
   305  401  402 2
   306  402  404 2
   307  402  403 2
   308  404  405 2
   309  360  388 1
   310  419  439 1
   311  419  440 1
   312  419  421 1
   313  420  422 1
   314  420  421 1
   315  422  423 1
   316  422  424 1
   317  423  428 1
   318  424  425 1
   319  424  426 1
   320  426  428 1
   321  426  427 1
   322  428  438 1
   323  429  430 ar
   324  429  434 ar
   325  430  431 ar
   326  431  432 ar
   327  432  438 ar
   328  432  433 ar
   329  433  436 ar
   330  433  434 ar
   331  434  435 1
   332  436  437 ar
   333  437  438 ar
   334  394  419 1
   335  452  474 1
   336  452  454 1
   337  452  473 1
   338  453  455 1
   339  453  454 1
   340  455  457 1
   341  455  456 1
   342  456  461 1
   343  457  459 1
   344  457  458 1
   345  459  461 1
   346  459  460 1
   347  461  472 1
   348  462  468 am
   349  462  463 1
   350  463  464 2
   351  463  465 2
   352  465  466 1
   353  466  472 ar
   354  466  467 ar
   355  467  468 1
   356  467  470 ar
   357  468  469 2
   358  470  471 ar
   359  471  472 ar
   360  425  452 1
   361  486  508 1
   362  486  488 1
   363  486  507 1
   364  487  489 1
   365  487  488 1
   366  489  491 1
   367  489  490 1
   368  490  495 1
   369  491  493 1
   370  491  492 1
   371  493  495 1
   372  493  494 1
   373  495  506 1
   374  496  502 am
   375  496  497 1
   376  497  498 2
   377  497  499 2
   378  499  500 1
   379  500  506 ar
   380  500  501 ar
   381  501  502 1
   382  501  504 ar
   383  502  503 2
   384  504  505 ar
   385  505  506 ar
   386  458  486 1
   387  520  542 1
   388  520  522 1
   389  520  541 1
   390  521  523 1
   391  521  522 1
   392  523  525 1
   393  523  524 1
   394  524  529 1
   395  525  527 1
   396  525  526 1
   397  527  529 1
   398  527  528 1
   399  529  540 1
   400  530  536 am
   401  530  531 1
   402  531  532 2
   403  531  533 2
   404  533  534 1
   405  534  540 ar
   406  534  535 ar
   407  535  536 1
   408  535  538 ar
   409  536  537 2
   410  538  539 ar
   411  539  540 ar
   412  492  520 1
   413  554  572 1
   414  554  573 1
   415  554  556 1
   416  555  556 1
   417  555  557 1
   418  557  559 1
   419  557  558 1
   420  558  563 1
   421  559  561 1
   422  559  560 1
   423  561  562 1
   424  561  563 1
   425  563  564 1
   426  564  565 am
   427  564  571 1
   428  565  566 2
   429  565  567 am
   430  567  568 am
   431  568  570 1
   432  568  569 2
   433  570  571 2
   434  526  554 1
   435  584  606 1
   436  584  586 1
   437  584  605 1
   438  585  587 1
   439  585  586 1
   440  587  589 1
   441  587  588 1
   442  588  593 1
   443  589  591 1
   444  589  590 1
   445  591  593 1
   446  591  592 1
   447  593  604 1
   448  594  600 am
   449  594  595 1
   450  595  596 2
   451  595  597 2
   452  597  598 1
   453  598  604 ar
   454  598  599 ar
   455  599  600 1
   456  599  602 ar
   457  600  601 2
   458  602  603 ar
   459  603  604 ar
   460  560  584 1
   461  618  638 1
   462  618  639 1
   463  618  620 1
   464  619  621 1
   465  619  620 1
   466  621  622 1
   467  621  623 1
   468  622  627 1
   469  623  624 1
   470  623  625 1
   471  625  627 1
   472  625  626 1
   473  627  637 1
   474  628  629 ar
   475  628  633 ar
   476  629  630 ar
   477  630  631 ar
   478  631  637 ar
   479  631  632 ar
   480  632  635 ar
   481  632  633 ar
   482  633  634 1
   483  635  636 ar
   484  636  637 ar
   485  590  618 1
   486  651  671 1
   487  651  672 1
   488  651  653 1
   489  652  654 1
   490  652  653 1
   491  654  655 1
   492  654  656 1
   493  655  660 1
   494  656  657 1
   495  656  658 1
   496  658  660 1
   497  658  659 1
   498  660  670 1
   499  661  662 ar
   500  661  666 ar
   501  662  663 ar
   502  663  664 ar
   503  664  670 ar
   504  664  665 ar
   505  665  668 ar
   506  665  666 ar
   507  666  667 1
   508  668  669 ar
   509  669  670 ar
   510  624  651 1
   511  684  704 1
   512  684  705 1
   513  684  686 1
   514  685  687 1
   515  685  686 1
   516  687  688 1
   517  687  689 1
   518  688  693 1
   519  689  690 1
   520  689  691 1
   521  691  693 1
   522  691  692 1
   523  693  703 1
   524  694  695 ar
   525  694  699 ar
   526  695  696 ar
   527  696  697 ar
   528  697  703 ar
   529  697  698 ar
   530  698  701 ar
   531  698  699 ar
   532  699  700 1
   533  701  702 ar
   534  702  703 ar
   535  657  684 1
   536  717  735 1
   537  717  736 1
   538  717  719 1
   539  718  719 1
   540  718  720 1
   541  720  722 1
   542  720  721 1
   543  721  726 1
   544  722  724 1
   545  722  723 1
   546  724  725 1
   547  724  726 1
   548  726  727 1
   549  727  728 am
   550  727  734 1
   551  728  729 2
   552  728  730 am
   553  730  731 am
   554  731  733 1
   555  731  732 2
   556  733  734 2
   557  690  717 1
   558  747  765 1
   559  747  766 1
   560  747  749 1
   561  748  749 1
   562  748  750 1
   563  750  752 1
   564  750  751 1
   565  751  756 1
   566  752  754 1
   567  752  753 1
   568  754  755 1
   569  754  756 1
   570  756  757 1
   571  757  758 am
   572  757  764 1
   573  758  759 2
   574  758  760 am
   575  760  761 am
   576  761  763 1
   577  761  762 2
   578  763  764 2
   579  723  747 1
   580  777  795 1
   581  777  796 1
   582  777  779 1
   583  778  779 1
   584  778  780 1
   585  780  782 1
   586  780  781 1
   587  781  786 1
   588  782  784 1
   589  782  783 1
   590  784  785 1
   591  784  786 1
   592  786  787 1
   593  787  788 am
   594  787  794 1
   595  788  790 1
   596  788  789 2
   597  790  791 2
   598  791  793 2
   599  791  792 2
   600  793  794 2
   601  753  777 1
   602  808  826 1
   603  808  827 1
   604  808  810 1
   605  809  810 1
   606  809  811 1
   607  811  813 1
   608  811  812 1
   609  812  817 1
   610  813  815 1
   611  813  814 1
   612  815  816 1
   613  815  817 1
   614  817  818 1
   615  818  819 am
   616  818  825 1
   617  819  821 1
   618  819  820 2
   619  821  822 2
   620  822  824 2
   621  822  823 2
   622  824  825 2
   623  783  808 1
   624  839  857 1
   625  839  858 1
   626  839  841 1
   627  840  841 1
   628  840  842 1
   629  842  844 1
   630  842  843 1
   631  843  848 1
   632  844  846 1
   633  844  845 1
   634  846  847 1
   635  846  848 1
   636  848  849 1
   637  849  850 am
   638  849  856 1
   639  850  852 1
   640  850  851 2
   641  852  853 2
   642  853  855 2
   643  853  854 2
   644  855  856 2
   645  814  839 1
   646  870  892 1
   647  870  872 1
   648  870  891 1
   649  871  873 1
   650  871  872 1
   651  873  875 1
   652  873  874 1
   653  874  879 1
   654  875  877 1
   655  875  876 1
   656  877  879 1
   657  877  878 1
   658  879  890 1
   659  880  886 am
   660  880  881 1
   661  881  882 2
   662  881  883 2
   663  883  884 1
   664  884  890 ar
   665  884  885 ar
   666  885  886 1
   667  885  888 ar
   668  886  887 2
   669  888  889 ar
   670  889  890 ar
   671  845  870 1
   672  904  924 1
   673  904  925 1
   674  904  906 1
   675  905  907 1
   676  905  906 1
   677  907  908 1
   678  907  909 1
   679  908  913 1
   680  909  910 1
   681  909  911 1
   682  911  913 1
   683  911  912 1
   684  913  923 1
   685  914  915 ar
   686  914  919 ar
   687  915  916 ar
   688  916  917 ar
   689  917  923 ar
   690  917  918 ar
   691  918  921 ar
   692  918  919 ar
   693  919  920 1
   694  921  922 ar
   695  922  923 ar
   696  876  904 1
   697  937  955 1
   698  937  956 1
   699  937  939 1
   700  938  939 1
   701  938  940 1
   702  940  942 1
   703  940  941 1
   704  941  946 1
   705  942  944 1
   706  942  943 1
   707  944  945 1
   708  944  946 1
   709  946  947 1
   710  947  948 am
   711  947  954 1
   712  948  950 1
   713  948  949 2
   714  950  951 2
   715  951  953 2
   716  951  952 2
   717  953  954 2
   718  910  937 1
   719  968  986 1
   720  968  987 1
   721  968  970 1
   722  969  970 1
   723  969  971 1
   724  971  973 1
   725  971  972 1
   726  972  977 1
   727  973  975 1
   728  973  974 1
   729  975  976 1
   730  975  977 1
   731  977  978 1
   732  978  979 am
   733  978  985 1
   734  979  981 1
   735  979  980 2
   736  981  982 2
   737  982  984 2
   738  982  983 2
   739  984  985 2
   740  943  968 1
   741  999 1021 1
   742  999 1001 1
   743  999 1020 1
   744 1000 1002 1
   745 1000 1001 1
   746 1002 1004 1
   747 1002 1003 1
   748 1003 1008 1
   749 1004 1006 1
   750 1004 1005 1
   751 1006 1008 1
   752 1006 1007 1
   753 1008 1019 1
   754 1009 1015 am
   755 1009 1010 1
   756 1010 1011 2
   757 1010 1012 2
   758 1012 1013 1
   759 1013 1019 ar
   760 1013 1014 ar
   761 1014 1015 1
   762 1014 1017 ar
   763 1015 1016 2
   764 1017 1018 ar
   765 1018 1019 ar
   766  974  999 1
   767 1033 1055 1
   768 1033 1035 1
   769 1033 1054 1
   770 1034 1036 1
   771 1034 1035 1
   772 1036 1038 1
   773 1036 1037 1
   774 1037 1042 1
   775 1038 1040 1
   776 1038 1039 1
   777 1040 1042 1
   778 1040 1041 1
   779 1042 1053 1
   780 1043 1049 am
   781 1043 1044 1
   782 1044 1045 2
   783 1044 1046 2
   784 1046 1047 1
   785 1047 1053 ar
   786 1047 1048 ar
   787 1048 1049 1
   788 1048 1051 ar
   789 1049 1050 2
   790 1051 1052 ar
   791 1052 1053 ar
   792 1005 1033 1
   793 1067 1085 1
   794 1067 1086 1
   795 1067 1069 1
   796 1068 1069 1
   797 1068 1070 1
   798 1070 1072 1
   799 1070 1071 1
   800 1071 1076 1
   801 1072 1074 1
   802 1072 1073 1
   803 1074 1075 1
   804 1074 1076 1
   805 1076 1077 1
   806 1077 1078 am
   807 1077 1084 1
   808 1078 1079 2
   809 1078 1080 am
   810 1080 1081 am
   811 1081 1083 1
   812 1081 1082 2
   813 1083 1084 2
   814 1039 1067 1
   815 1097 1119 1
   816 1097 1099 1
   817 1097 1118 1
   818 1098 1100 1
   819 1098 1099 1
   820 1100 1102 1
   821 1100 1101 1
   822 1101 1106 1
   823 1102 1104 1
   824 1102 1103 1
   825 1104 1106 1
   826 1104 1105 1
   827 1106 1117 1
   828 1107 1113 am
   829 1107 1108 1
   830 1108 1109 2
   831 1108 1110 2
   832 1110 1111 1
   833 1111 1117 ar
   834 1111 1112 ar
   835 1112 1113 1
   836 1112 1115 ar
   837 1113 1114 2
   838 1115 1116 ar
   839 1116 1117 ar
   840 1073 1097 1
   841 1131 1153 1
   842 1131 1133 1
   843 1131 1152 1
   844 1132 1134 1
   845 1132 1133 1
   846 1134 1136 1
   847 1134 1135 1
   848 1135 1140 1
   849 1136 1138 1
   850 1136 1137 1
   851 1138 1140 1
   852 1138 1139 1
   853 1140 1151 1
   854 1141 1147 am
   855 1141 1142 1
   856 1142 1143 2
   857 1142 1144 2
   858 1144 1145 1
   859 1145 1151 ar
   860 1145 1146 ar
   861 1146 1147 1
   862 1146 1149 ar
   863 1147 1148 2
   864 1149 1150 ar
   865 1150 1151 ar
   866 1103 1131 1
   867 1165 1183 1
   868 1165 1184 1
   869 1165 1167 1
   870 1166 1167 1
   871 1166 1168 1
   872 1168 1170 1
   873 1168 1169 1
   874 1169 1174 1
   875 1170 1172 1
   876 1170 1171 1
   877 1172 1173 1
   878 1172 1174 1
   879 1174 1175 1
   880 1175 1176 am
   881 1175 1182 1
   882 1176 1177 2
   883 1176 1178 am
   884 1178 1179 am
   885 1179 1181 1
   886 1179 1180 2
   887 1181 1182 2
   888 1137 1165 1
   889 1195 1215 1
   890 1195 1216 1
   891 1195 1197 1
   892 1196 1198 1
   893 1196 1197 1
   894 1198 1199 1
   895 1198 1200 1
   896 1199 1204 1
   897 1200 1201 1
   898 1200 1202 1
   899 1202 1204 1
   900 1202 1203 1
   901 1204 1214 1
   902 1205 1206 ar
   903 1205 1210 ar
   904 1206 1207 ar
   905 1207 1208 ar
   906 1208 1214 ar
   907 1208 1209 ar
   908 1209 1212 ar
   909 1209 1210 ar
   910 1210 1211 1
   911 1212 1213 ar
   912 1213 1214 ar
   913 1171 1195 1
   914 1228 1246 1
   915 1228 1247 1
   916 1228 1230 1
   917 1229 1230 1
   918 1229 1231 1
   919 1231 1233 1
   920 1231 1232 1
   921 1232 1237 1
   922 1233 1235 1
   923 1233 1234 1
   924 1235 1236 1
   925 1235 1237 1
   926 1237 1238 1
   927 1238 1239 am
   928 1238 1245 1
   929 1239 1240 2
   930 1239 1241 am
   931 1241 1242 am
   932 1242 1244 1
   933 1242 1243 2
   934 1244 1245 2
   935 1201 1228 1
   936 1258 1278 1
   937 1258 1279 1
   938 1258 1260 1
   939 1259 1261 1
   940 1259 1260 1
   941 1261 1262 1
   942 1261 1263 1
   943 1262 1267 1
   944 1263 1264 1
   945 1263 1265 1
   946 1265 1267 1
   947 1265 1266 1
   948 1267 1277 1
   949 1268 1269 ar
   950 1268 1273 ar
   951 1269 1270 ar
   952 1270 1271 ar
   953 1271 1277 ar
   954 1271 1272 ar
   955 1272 1275 ar
   956 1272 1273 ar
   957 1273 1274 1
   958 1275 1276 ar
   959 1276 1277 ar
   960 1234 1258 1
   961 1291 1313 1
   962 1291 1293 1
   963 1291 1312 1
   964 1292 1294 1
   965 1292 1293 1
   966 1294 1296 1
   967 1294 1295 1
   968 1295 1300 1
   969 1296 1298 1
   970 1296 1297 1
   971 1298 1300 1
   972 1298 1299 1
   973 1300 1311 1
   974 1301 1307 am
   975 1301 1302 1
   976 1302 1303 2
   977 1302 1304 2
   978 1304 1305 1
   979 1305 1311 ar
   980 1305 1306 ar
   981 1306 1307 1
   982 1306 1309 ar
   983 1307 1308 2
   984 1309 1310 ar
   985 1310 1311 ar
   986 1264 1291 1
   987 1325 1343 1
   988 1325 1344 1
   989 1325 1327 1
   990 1326 1327 1
   991 1326 1328 1
   992 1328 1330 1
   993 1328 1329 1
   994 1329 1334 1
   995 1330 1332 1
   996 1330 1331 1
   997 1332 1333 1
   998 1332 1334 1
   999 1334 1335 1
  1000 1335 1336 am
  1001 1335 1342 1
  1002 1336 1337 2
  1003 1336 1338 am
  1004 1338 1339 am
  1005 1339 1341 1
  1006 1339 1340 2
  1007 1341 1342 2
  1008 1297 1325 1
  1009 1355 1373 1
  1010 1355 1374 1
  1011 1355 1357 1
  1012 1356 1357 1
  1013 1356 1358 1
  1014 1358 1360 1
  1015 1358 1359 1
  1016 1359 1364 1
  1017 1360 1362 1
  1018 1360 1361 1
  1019 1362 1363 1
  1020 1362 1364 1
  1021 1364 1365 1
  1022 1365 1366 am
  1023 1365 1372 1
  1024 1366 1368 1
  1025 1366 1367 2
  1026 1368 1369 2
  1027 1369 1371 2
  1028 1369 1370 2
  1029 1371 1372 2
  1030 1331 1355 1
  1031 1386 1404 1
  1032 1386 1405 1
  1033 1386 1388 1
  1034 1387 1388 1
  1035 1387 1389 1
  1036 1389 1391 1
  1037 1389 1390 1
  1038 1390 1395 1
  1039 1391 1393 1
  1040 1391 1392 1
  1041 1393 1394 1
  1042 1393 1395 1
  1043 1395 1396 1
  1044 1396 1397 am
  1045 1396 1403 1
  1046 1397 1399 1
  1047 1397 1398 2
  1048 1399 1400 2
  1049 1400 1402 2
  1050 1400 1401 2
  1051 1402 1403 2
  1052 1361 1386 1
  1053 1417 1437 1
  1054 1417 1438 1
  1055 1417 1419 1
  1056 1418 1420 1
  1057 1418 1419 1
  1058 1420 1421 1
  1059 1420 1422 1
  1060 1421 1426 1
  1061 1422 1423 1
  1062 1422 1424 1
  1063 1424 1426 1
  1064 1424 1425 1
  1065 1426 1436 1
  1066 1427 1428 ar
  1067 1427 1432 ar
  1068 1428 1429 ar
  1069 1429 1430 ar
  1070 1430 1436 ar
  1071 1430 1431 ar
  1072 1431 1434 ar
  1073 1431 1432 ar
  1074 1432 1433 1
  1075 1434 1435 ar
  1076 1435 1436 ar
  1077 1392 1417 1
  1078 1450 1468 1
  1079 1450 1469 1
  1080 1450 1452 1
  1081 1451 1452 1
  1082 1451 1453 1
  1083 1453 1455 1
  1084 1453 1454 1
  1085 1454 1459 1
  1086 1455 1457 1
  1087 1455 1456 1
  1088 1457 1458 1
  1089 1457 1459 1
  1090 1459 1460 1
  1091 1460 1461 am
  1092 1460 1467 1
  1093 1461 1463 1
  1094 1461 1462 2
  1095 1463 1464 2
  1096 1464 1466 2
  1097 1464 1465 2
  1098 1466 1467 2
  1099 1423 1450 1
  1100 1481 1503 1
  1101 1481 1483 1
  1102 1481 1502 1
  1103 1482 1484 1
  1104 1482 1483 1
  1105 1484 1486 1
  1106 1484 1485 1
  1107 1485 1490 1
  1108 1486 1488 1
  1109 1486 1487 1
  1110 1488 1490 1
  1111 1488 1489 1
  1112 1490 1501 1
  1113 1491 1497 am
  1114 1491 1492 1
  1115 1492 1493 2
  1116 1492 1494 2
  1117 1494 1495 1
  1118 1495 1501 ar
  1119 1495 1496 ar
  1120 1496 1497 1
  1121 1496 1499 ar
  1122 1497 1498 2
  1123 1499 1500 ar
  1124 1500 1501 ar
  1125 1456 1481 1
  1126 1515 1535 1
  1127 1515 1536 1
  1128 1515 1517 1
  1129 1516 1518 1
  1130 1516 1517 1
  1131 1518 1519 1
  1132 1518 1520 1
  1133 1519 1524 1
  1134 1520 1521 1
  1135 1520 1522 1
  1136 1522 1524 1
  1137 1522 1523 1
  1138 1524 1534 1
  1139 1525 1526 ar
  1140 1525 1530 ar
  1141 1526 1527 ar
  1142 1527 1528 ar
  1143 1528 1534 ar
  1144 1528 1529 ar
  1145 1529 1532 ar
  1146 1529 1530 ar
  1147 1530 1531 1
  1148 1532 1533 ar
  1149 1533 1534 ar
  1150 1487 1515 1
  1151 1548 1568 1
  1152 1548 1569 1
  1153 1548 1550 1
  1154 1549 1551 1
  1155 1549 1550 1
  1156 1551 1552 1
  1157 1551 1553 1
  1158 1552 1557 1
  1159 1553 1554 1
  1160 1553 1555 1
  1161 1555 1557 1
  1162 1555 1556 1
  1163 1557 1567 1
  1164 1558 1559 ar
  1165 1558 1563 ar
  1166 1559 1560 ar
  1167 1560 1561 ar
  1168 1561 1567 ar
  1169 1561 1562 ar
  1170 1562 1565 ar
  1171 1562 1563 ar
  1172 1563 1564 1
  1173 1565 1566 ar
  1174 1566 1567 ar
  1175 1521 1548 1
  1176 1581 1601 1
  1177 1581 1602 1
  1178 1581 1583 1
  1179 1582 1584 1
  1180 1582 1583 1
  1181 1584 1585 1
  1182 1584 1586 1
  1183 1585 1590 1
  1184 1586 1587 1
  1185 1586 1588 1
  1186 1588 1590 1
  1187 1588 1589 1
  1188 1590 1600 1
  1189 1591 1592 ar
  1190 1591 1596 ar
  1191 1592 1593 ar
  1192 1593 1594 ar
  1193 1594 1600 ar
  1194 1594 1595 ar
  1195 1595 1598 ar
  1196 1595 1596 ar
  1197 1596 1597 1
  1198 1598 1599 ar
  1199 1599 1600 ar
  1200 1554 1581 1
  1201 1614 1636 1
  1202 1614 1616 1
  1203 1614 1635 1
  1204 1615 1617 1
  1205 1615 1616 1
  1206 1617 1619 1
  1207 1617 1618 1
  1208 1618 1623 1
  1209 1619 1621 1
  1210 1619 1620 1
  1211 1621 1623 1
  1212 1621 1622 1
  1213 1623 1634 1
  1214 1624 1630 am
  1215 1624 1625 1
  1216 1625 1626 2
  1217 1625 1627 2
  1218 1627 1628 1
  1219 1628 1634 ar
  1220 1628 1629 ar
  1221 1629 1630 1
  1222 1629 1632 ar
  1223 1630 1631 2
  1224 1632 1633 ar
  1225 1633 1634 ar
  1226 1587 1614 1
  1227 1648 1666 1
  1228 1648 1667 1
  1229 1648 1650 1
  1230 1649 1650 1
  1231 1649 1651 1
  1232 1651 1653 1
  1233 1651 1652 1
  1234 1652 1657 1
  1235 1653 1655 1
  1236 1653 1654 1
  1237 1655 1656 1
  1238 1655 1657 1
  1239 1657 1658 1
  1240 1658 1659 am
  1241 1658 1665 1
  1242 1659 1661 1
  1243 1659 1660 2
  1244 1661 1662 2
  1245 1662 1664 2
  1246 1662 1663 2
  1247 1664 1665 2
  1248 1620 1648 1
  1249 1680 1681 1
  1250 1680 1682 1
  1251 1682 1684 1
  1252 1682 1683 1
  1253 1683 1688 1
  1254 1684 1686 1
  1255 1684 1685 1
  1256 1686 1687 1
  1257 1686 1688 1
  1258 1688 1689 1
  1259 1689 1696 1
  1260 1689 1690 am
  1261 1690 1692 am
  1262 1690 1691 2
  1263 1692 1693 am
  1264 1693 1695 1
  1265 1693 1694 2
  1266 1695 1696 2
  1267 1679 1681 1
  1268 1679 1697 1
  1269 1679 1698 1
  1270 1654 1679 1
  1271 1710 1711 1
  1272 1710 1712 1
  1273 1712 1714 1
  1274 1712 1713 1
  1275 1713 1718 1
  1276 1714 1716 1
  1277 1714 1715 1
  1278 1716 1718 1
  1279 1716 1717 1
  1280 1718 1729 1
  1281 1719 1720 1
  1282 1719 1725 am
  1283 1720 1721 2
  1284 1720 1722 2
  1285 1722 1723 1
  1286 1723 1729 ar
  1287 1723 1724 ar
  1288 1724 1727 ar
  1289 1724 1725 1
  1290 1725 1726 2
  1291 1727 1728 ar
  1292 1728 1729 ar
  1293 1742 1760 1
  1294 1742 1761 1
  1295 1742 1744 1
  1296 1743 1744 1
  1297 1743 1745 1
  1298 1745 1747 1
  1299 1745 1746 1
  1300 1746 1751 1
  1301 1747 1749 1
  1302 1747 1748 1
  1303 1749 1750 1
  1304 1749 1751 1
  1305 1751 1752 1
  1306 1752 1753 am
  1307 1752 1759 1
  1308 1753 1755 1
  1309 1753 1754 2
  1310 1755 1756 2
  1311 1756 1758 2
  1312 1756 1757 2
  1313 1758 1759 2
  1314 1742 1715 1
  1315 1773 1791 1
  1316 1773 1792 1
  1317 1773 1775 1
  1318 1774 1775 1
  1319 1774 1776 1
  1320 1776 1778 1
  1321 1776 1777 1
  1322 1777 1782 1
  1323 1778 1780 1
  1324 1778 1779 1
  1325 1780 1781 1
  1326 1780 1782 1
  1327 1782 1783 1
  1328 1783 1784 am
  1329 1783 1790 1
  1330 1784 1785 2
  1331 1784 1786 am
  1332 1786 1787 am
  1333 1787 1789 1
  1334 1787 1788 2
  1335 1789 1790 2
  1336 1748 1773 1
  1337 1803 1821 1
  1338 1803 1822 1
  1339 1803 1805 1
  1340 1804 1805 1
  1341 1804 1806 1
  1342 1806 1808 1
  1343 1806 1807 1
  1344 1807 1812 1
  1345 1808 1810 1
  1346 1808 1809 1
  1347 1810 1811 1
  1348 1810 1812 1
  1349 1812 1813 1
  1350 1813 1814 am
  1351 1813 1820 1
  1352 1814 1815 2
  1353 1814 1816 am
  1354 1816 1817 am
  1355 1817 1819 1
  1356 1817 1818 2
  1357 1819 1820 2
  1358 1779 1803 1
  1359 1833 1851 1
  1360 1833 1852 1
  1361 1833 1835 1
  1362 1834 1835 1
  1363 1834 1836 1
  1364 1836 1838 1
  1365 1836 1837 1
  1366 1837 1842 1
  1367 1838 1840 1
  1368 1838 1839 1
  1369 1840 1841 1
  1370 1840 1842 1
  1371 1842 1843 1
  1372 1843 1844 am
  1373 1843 1850 1
  1374 1844 1845 2
  1375 1844 1846 am
  1376 1846 1847 am
  1377 1847 1849 1
  1378 1847 1848 2
  1379 1849 1850 2
  1380 1809 1833 1
  1381 1863 1885 1
  1382 1863 1865 1
  1383 1863 1884 1
  1384 1864 1866 1
  1385 1864 1865 1
  1386 1866 1868 1
  1387 1866 1867 1
  1388 1867 1872 1
  1389 1868 1870 1
  1390 1868 1869 1
  1391 1870 1872 1
  1392 1870 1871 1
  1393 1872 1883 1
  1394 1873 1879 am
  1395 1873 1874 1
  1396 1874 1875 2
  1397 1874 1876 2
  1398 1876 1877 1
  1399 1877 1883 ar
  1400 1877 1878 ar
  1401 1878 1879 1
  1402 1878 1881 ar
  1403 1879 1880 2
  1404 1881 1882 ar
  1405 1882 1883 ar
  1406 1839 1863 1
  1407 1897 1917 1
  1408 1897 1918 1
  1409 1897 1899 1
  1410 1898 1900 1
  1411 1898 1899 1
  1412 1900 1901 1
  1413 1900 1902 1
  1414 1901 1906 1
  1415 1902 1903 1
  1416 1902 1904 1
  1417 1904 1906 1
  1418 1904 1905 1
  1419 1906 1916 1
  1420 1907 1908 ar
  1421 1907 1912 ar
  1422 1908 1909 ar
  1423 1909 1910 ar
  1424 1910 1916 ar
  1425 1910 1911 ar
  1426 1911 1914 ar
  1427 1911 1912 ar
  1428 1912 1913 1
  1429 1914 1915 ar
  1430 1915 1916 ar
  1431 1869 1897 1
  1432 1930 1948 1
  1433 1930 1949 1
  1434 1930 1932 1
  1435 1931 1932 1
  1436 1931 1933 1
  1437 1933 1935 1
  1438 1933 1934 1
  1439 1934 1939 1
  1440 1935 1937 1
  1441 1935 1936 1
  1442 1937 1938 1
  1443 1937 1939 1
  1444 1939 1940 1
  1445 1940 1941 am
  1446 1940 1947 1
  1447 1941 1942 2
  1448 1941 1943 am
  1449 1943 1944 am
  1450 1944 1946 1
  1451 1944 1945 2
  1452 1946 1947 2
  1453 1903 1930 1
  1454 1960 1978 1
  1455 1960 1979 1
  1456 1960 1962 1
  1457 1961 1962 1
  1458 1961 1963 1
  1459 1963 1965 1
  1460 1963 1964 1
  1461 1964 1969 1
  1462 1965 1967 1
  1463 1965 1966 1
  1464 1967 1968 1
  1465 1967 1969 1
  1466 1969 1970 1
  1467 1970 1971 am
  1468 1970 1977 1
  1469 1971 1972 2
  1470 1971 1973 am
  1471 1973 1974 am
  1472 1974 1976 1
  1473 1974 1975 2
  1474 1976 1977 2
  1475 1936 1960 1
  1476 1990 2008 1
  1477 1990 2009 1
  1478 1990 1992 1
  1479 1991 1992 1
  1480 1991 1993 1
  1481 1993 1995 1
  1482 1993 1994 1
  1483 1994 1999 1
  1484 1995 1997 1
  1485 1995 1996 1
  1486 1997 1998 1
  1487 1997 1999 1
  1488 1999 2000 1
  1489 2000 2001 am
  1490 2000 2007 1
  1491 2001 2002 2
  1492 2001 2003 am
  1493 2003 2004 am
  1494 2004 2006 1
  1495 2004 2005 2
  1496 2006 2007 2
  1497 1966 1990 1
  1498 2020 2042 1
  1499 2020 2022 1
  1500 2020 2041 1
  1501 2021 2023 1
  1502 2021 2022 1
  1503 2023 2025 1
  1504 2023 2024 1
  1505 2024 2029 1
  1506 2025 2027 1
  1507 2025 2026 1
  1508 2027 2029 1
  1509 2027 2028 1
  1510 2029 2040 1
  1511 2030 2036 am
  1512 2030 2031 1
  1513 2031 2032 2
  1514 2031 2033 2
  1515 2033 2034 1
  1516 2034 2040 ar
  1517 2034 2035 ar
  1518 2035 2036 1
  1519 2035 2038 ar
  1520 2036 2037 2
  1521 2038 2039 ar
  1522 2039 2040 ar
  1523 1996 2020 1
  1524 2054 2076 1
  1525 2054 2056 1
  1526 2054 2075 1
  1527 2055 2057 1
  1528 2055 2056 1
  1529 2057 2059 1
  1530 2057 2058 1
  1531 2058 2063 1
  1532 2059 2061 1
  1533 2059 2060 1
  1534 2061 2063 1
  1535 2061 2062 1
  1536 2063 2074 1
  1537 2064 2070 am
  1538 2064 2065 1
  1539 2065 2066 2
  1540 2065 2067 2
  1541 2067 2068 1
  1542 2068 2074 ar
  1543 2068 2069 ar
  1544 2069 2070 1
  1545 2069 2072 ar
  1546 2070 2071 2
  1547 2072 2073 ar
  1548 2073 2074 ar
  1549 2026 2054 1
  1550 2088 2106 1
  1551 2088 2107 1
  1552 2088 2090 1
  1553 2089 2090 1
  1554 2089 2091 1
  1555 2091 2093 1
  1556 2091 2092 1
  1557 2092 2097 1
  1558 2093 2095 1
  1559 2093 2094 1
  1560 2095 2096 1
  1561 2095 2097 1
  1562 2097 2098 1
  1563 2098 2099 am
  1564 2098 2105 1
  1565 2099 2100 2
  1566 2099 2101 am
  1567 2101 2102 am
  1568 2102 2104 1
  1569 2102 2103 2
  1570 2104 2105 2
  1571 2060 2088 1
  1572 2118 2140 1
  1573 2118 2120 1
  1574 2118 2139 1
  1575 2119 2121 1
  1576 2119 2120 1
  1577 2121 2123 1
  1578 2121 2122 1
  1579 2122 2127 1
  1580 2123 2125 1
  1581 2123 2124 1
  1582 2125 2127 1
  1583 2125 2126 1
  1584 2127 2138 1
  1585 2128 2134 am
  1586 2128 2129 1
  1587 2129 2130 2
  1588 2129 2131 2
  1589 2131 2132 1
  1590 2132 2138 ar
  1591 2132 2133 ar
  1592 2133 2134 1
  1593 2133 2136 ar
  1594 2134 2135 2
  1595 2136 2137 ar
  1596 2137 2138 ar
  1597 2094 2118 1
  1598 2152 2172 1
  1599 2152 2173 1
  1600 2152 2154 1
  1601 2153 2155 1
  1602 2153 2154 1
  1603 2155 2156 1
  1604 2155 2157 1
  1605 2156 2161 1
  1606 2157 2158 1
  1607 2157 2159 1
  1608 2159 2161 1
  1609 2159 2160 1
  1610 2161 2171 1
  1611 2162 2163 ar
  1612 2162 2167 ar
  1613 2163 2164 ar
  1614 2164 2165 ar
  1615 2165 2171 ar
  1616 2165 2166 ar
  1617 2166 2169 ar
  1618 2166 2167 ar
  1619 2167 2168 1
  1620 2169 2170 ar
  1621 2170 2171 ar
  1622 2124 2152 1
  1623 2185 2205 1
  1624 2185 2206 1
  1625 2185 2187 1
  1626 2186 2188 1
  1627 2186 2187 1
  1628 2188 2189 1
  1629 2188 2190 1
  1630 2189 2194 1
  1631 2190 2191 1
  1632 2190 2192 1
  1633 2192 2194 1
  1634 2192 2193 1
  1635 2194 2204 1
  1636 2195 2196 ar
  1637 2195 2200 ar
  1638 2196 2197 ar
  1639 2197 2198 ar
  1640 2198 2204 ar
  1641 2198 2199 ar
  1642 2199 2202 ar
  1643 2199 2200 ar
  1644 2200 2201 1
  1645 2202 2203 ar
  1646 2203 2204 ar
  1647 2158 2185 1
  1648 2218 2238 1
  1649 2218 2239 1
  1650 2218 2220 1
  1651 2219 2221 1
  1652 2219 2220 1
  1653 2221 2222 1
  1654 2221 2223 1
  1655 2222 2227 1
  1656 2223 2224 1
  1657 2223 2225 1
  1658 2225 2227 1
  1659 2225 2226 1
  1660 2227 2237 1
  1661 2228 2229 ar
  1662 2228 2233 ar
  1663 2229 2230 ar
  1664 2230 2231 ar
  1665 2231 2237 ar
  1666 2231 2232 ar
  1667 2232 2235 ar
  1668 2232 2233 ar
  1669 2233 2234 1
  1670 2235 2236 ar
  1671 2236 2237 ar
  1672 2191 2218 1
  1673 2251 2269 1
  1674 2251 2270 1
  1675 2251 2253 1
  1676 2252 2253 1
  1677 2252 2254 1
  1678 2254 2256 1
  1679 2254 2255 1
  1680 2255 2260 1
  1681 2256 2258 1
  1682 2256 2257 1
  1683 2258 2259 1
  1684 2258 2260 1
  1685 2260 2261 1
  1686 2261 2262 am
  1687 2261 2268 1
  1688 2262 2263 2
  1689 2262 2264 am
  1690 2264 2265 am
  1691 2265 2267 1
  1692 2265 2266 2
  1693 2267 2268 2
  1694 2224 2251 1
  1695 2281 2299 1
  1696 2281 2300 1
  1697 2281 2283 1
  1698 2282 2283 1
  1699 2282 2284 1
  1700 2284 2286 1
  1701 2284 2285 1
  1702 2285 2290 1
  1703 2286 2288 1
  1704 2286 2287 1
  1705 2288 2289 1
  1706 2288 2290 1
  1707 2290 2291 1
  1708 2291 2292 am
  1709 2291 2298 1
  1710 2292 2293 2
  1711 2292 2294 am
  1712 2294 2295 am
  1713 2295 2297 1
  1714 2295 2296 2
  1715 2297 2298 2
  1716 2257 2281 1
  1717 2311 2329 1
  1718 2311 2330 1
  1719 2311 2313 1
  1720 2312 2313 1
  1721 2312 2314 1
  1722 2314 2316 1
  1723 2314 2315 1
  1724 2315 2320 1
  1725 2316 2318 1
  1726 2316 2317 1
  1727 2318 2319 1
  1728 2318 2320 1
  1729 2320 2321 1
  1730 2321 2322 am
  1731 2321 2328 1
  1732 2322 2324 1
  1733 2322 2323 2
  1734 2324 2325 2
  1735 2325 2327 2
  1736 2325 2326 2
  1737 2327 2328 2
  1738 2287 2311 1
  1739 2342 2360 1
  1740 2342 2361 1
  1741 2342 2344 1
  1742 2343 2344 1
  1743 2343 2345 1
  1744 2345 2347 1
  1745 2345 2346 1
  1746 2346 2351 1
  1747 2347 2349 1
  1748 2347 2348 1
  1749 2349 2350 1
  1750 2349 2351 1
  1751 2351 2352 1
  1752 2352 2353 am
  1753 2352 2359 1
  1754 2353 2355 1
  1755 2353 2354 2
  1756 2355 2356 2
  1757 2356 2358 2
  1758 2356 2357 2
  1759 2358 2359 2
  1760 2317 2342 1
  1761 2373 2393 1
  1762 2373 2394 1
  1763 2373 2375 1
  1764 2374 2376 1
  1765 2374 2375 1
  1766 2376 2377 1
  1767 2376 2378 1
  1768 2377 2382 1
  1769 2378 2379 1
  1770 2378 2380 1
  1771 2380 2382 1
  1772 2380 2381 1
  1773 2382 2392 1
  1774 2383 2384 ar
  1775 2383 2388 ar
  1776 2384 2385 ar
  1777 2385 2386 ar
  1778 2386 2392 ar
  1779 2386 2387 ar
  1780 2387 2390 ar
  1781 2387 2388 ar
  1782 2388 2389 1
  1783 2390 2391 ar
  1784 2391 2392 ar
  1785 2348 2373 1
  1786 2406 2426 1
  1787 2406 2427 1
  1788 2406 2408 1
  1789 2407 2409 1
  1790 2407 2408 1
  1791 2409 2410 1
  1792 2409 2411 1
  1793 2410 2415 1
  1794 2411 2412 1
  1795 2411 2413 1
  1796 2413 2415 1
  1797 2413 2414 1
  1798 2415 2425 1
  1799 2416 2417 ar
  1800 2416 2421 ar
  1801 2417 2418 ar
  1802 2418 2419 ar
  1803 2419 2425 ar
  1804 2419 2420 ar
  1805 2420 2423 ar
  1806 2420 2421 ar
  1807 2421 2422 1
  1808 2423 2424 ar
  1809 2424 2425 ar
  1810 2379 2406 1
  1811 2439 2459 1
  1812 2439 2460 1
  1813 2439 2441 1
  1814 2440 2442 1
  1815 2440 2441 1
  1816 2442 2443 1
  1817 2442 2444 1
  1818 2443 2448 1
  1819 2444 2445 1
  1820 2444 2446 1
  1821 2446 2448 1
  1822 2446 2447 1
  1823 2448 2458 1
  1824 2449 2450 ar
  1825 2449 2454 ar
  1826 2450 2451 ar
  1827 2451 2452 ar
  1828 2452 2458 ar
  1829 2452 2453 ar
  1830 2453 2456 ar
  1831 2453 2454 ar
  1832 2454 2455 1
  1833 2456 2457 ar
  1834 2457 2458 ar
  1835 2412 2439 1
  1836 2472 2492 1
  1837 2472 2493 1
  1838 2472 2474 1
  1839 2473 2475 1
  1840 2473 2474 1
  1841 2475 2476 1
  1842 2475 2477 1
  1843 2476 2481 1
  1844 2477 2478 1
  1845 2477 2479 1
  1846 2479 2481 1
  1847 2479 2480 1
  1848 2481 2491 1
  1849 2482 2483 ar
  1850 2482 2487 ar
  1851 2483 2484 ar
  1852 2484 2485 ar
  1853 2485 2491 ar
  1854 2485 2486 ar
  1855 2486 2489 ar
  1856 2486 2487 ar
  1857 2487 2488 1
  1858 2489 2490 ar
  1859 2490 2491 ar
  1860 2445 2472 1
  1861 2505 2523 1
  1862 2505 2524 1
  1863 2505 2507 1
  1864 2506 2507 1
  1865 2506 2508 1
  1866 2508 2510 1
  1867 2508 2509 1
  1868 2509 2514 1
  1869 2510 2512 1
  1870 2510 2511 1
  1871 2512 2513 1
  1872 2512 2514 1
  1873 2514 2515 1
  1874 2515 2516 am
  1875 2515 2522 1
  1876 2516 2518 1
  1877 2516 2517 2
  1878 2518 2519 2
  1879 2519 2521 2
  1880 2519 2520 2
  1881 2521 2522 2
  1882 2478 2505 1
  1883 2536 2554 1
  1884 2536 2555 1
  1885 2536 2538 1
  1886 2537 2538 1
  1887 2537 2539 1
  1888 2539 2541 1
  1889 2539 2540 1
  1890 2540 2545 1
  1891 2541 2543 1
  1892 2541 2542 1
  1893 2543 2544 1
  1894 2543 2545 1
  1895 2545 2546 1
  1896 2546 2547 am
  1897 2546 2553 1
  1898 2547 2549 1
  1899 2547 2548 2
  1900 2549 2550 2
  1901 2550 2552 2
  1902 2550 2551 2
  1903 2552 2553 2
  1904 2511 2536 1
  1905 2567 2589 1
  1906 2567 2569 1
  1907 2567 2588 1
  1908 2568 2570 1
  1909 2568 2569 1
  1910 2570 2572 1
  1911 2570 2571 1
  1912 2571 2576 1
  1913 2572 2574 1
  1914 2572 2573 1
  1915 2574 2576 1
  1916 2574 2575 1
  1917 2576 2587 1
  1918 2577 2583 am
  1919 2577 2578 1
  1920 2578 2579 2
  1921 2578 2580 2
  1922 2580 2581 1
  1923 2581 2587 ar
  1924 2581 2582 ar
  1925 2582 2583 1
  1926 2582 2585 ar
  1927 2583 2584 2
  1928 2585 2586 ar
  1929 2586 2587 ar
  1930 2542 2567 1
  1931 2601 2621 1
  1932 2601 2622 1
  1933 2601 2603 1
  1934 2602 2604 1
  1935 2602 2603 1
  1936 2604 2605 1
  1937 2604 2606 1
  1938 2605 2610 1
  1939 2606 2607 1
  1940 2606 2608 1
  1941 2608 2610 1
  1942 2608 2609 1
  1943 2610 2620 1
  1944 2611 2612 ar
  1945 2611 2616 ar
  1946 2612 2613 ar
  1947 2613 2614 ar
  1948 2614 2620 ar
  1949 2614 2615 ar
  1950 2615 2618 ar
  1951 2615 2616 ar
  1952 2616 2617 1
  1953 2618 2619 ar
  1954 2619 2620 ar
  1955 2573 2601 1
  1956 2634 2652 1
  1957 2634 2653 1
  1958 2634 2636 1
  1959 2635 2636 1
  1960 2635 2637 1
  1961 2637 2639 1
  1962 2637 2638 1
  1963 2638 2643 1
  1964 2639 2641 1
  1965 2639 2640 1
  1966 2641 2642 1
  1967 2641 2643 1
  1968 2643 2644 1
  1969 2644 2645 am
  1970 2644 2651 1
  1971 2645 2647 1
  1972 2645 2646 2
  1973 2647 2648 2
  1974 2648 2650 2
  1975 2648 2649 2
  1976 2650 2651 2
  1977 2607 2634 1
  1978 2665 2685 1
  1979 2665 2686 1
  1980 2665 2667 1
  1981 2666 2668 1
  1982 2666 2667 1
  1983 2668 2669 1
  1984 2668 2670 1
  1985 2669 2674 1
  1986 2670 2671 1
  1987 2670 2672 1
  1988 2672 2674 1
  1989 2672 2673 1
  1990 2674 2684 1
  1991 2675 2676 ar
  1992 2675 2680 ar
  1993 2676 2677 ar
  1994 2677 2678 ar
  1995 2678 2684 ar
  1996 2678 2679 ar
  1997 2679 2682 ar
  1998 2679 2680 ar
  1999 2680 2681 1
  2000 2682 2683 ar
  2001 2683 2684 ar
  2002 2640 2665 1
  2003 2698 2720 1
  2004 2698 2700 1
  2005 2698 2719 1
  2006 2699 2701 1
  2007 2699 2700 1
  2008 2701 2703 1
  2009 2701 2702 1
  2010 2702 2707 1
  2011 2703 2705 1
  2012 2703 2704 1
  2013 2705 2707 1
  2014 2705 2706 1
  2015 2707 2718 1
  2016 2708 2714 am
  2017 2708 2709 1
  2018 2709 2710 2
  2019 2709 2711 2
  2020 2711 2712 1
  2021 2712 2718 ar
  2022 2712 2713 ar
  2023 2713 2714 1
  2024 2713 2716 ar
  2025 2714 2715 2
  2026 2716 2717 ar
  2027 2717 2718 ar
  2028 2671 2698 1
  2029 2732 2750 1
  2030 2732 2751 1
  2031 2732 2734 1
  2032 2733 2734 1
  2033 2733 2735 1
  2034 2735 2737 1
  2035 2735 2736 1
  2036 2736 2741 1
  2037 2737 2739 1
  2038 2737 2738 1
  2039 2739 2740 1
  2040 2739 2741 1
  2041 2741 2742 1
  2042 2742 2743 am
  2043 2742 2749 1
  2044 2743 2744 2
  2045 2743 2745 am
  2046 2745 2746 am
  2047 2746 2748 1
  2048 2746 2747 2
  2049 2748 2749 2
  2050 2704 2732 1
  2051 2762 2782 1
  2052 2762 2783 1
  2053 2762 2764 1
  2054 2763 2765 1
  2055 2763 2764 1
  2056 2765 2766 1
  2057 2765 2767 1
  2058 2766 2771 1
  2059 2767 2768 1
  2060 2767 2769 1
  2061 2769 2771 1
  2062 2769 2770 1
  2063 2771 2781 1
  2064 2772 2773 ar
  2065 2772 2777 ar
  2066 2773 2774 ar
  2067 2774 2775 ar
  2068 2775 2781 ar
  2069 2775 2776 ar
  2070 2776 2779 ar
  2071 2776 2777 ar
  2072 2777 2778 1
  2073 2779 2780 ar
  2074 2780 2781 ar
  2075 2738 2762 1
  2076 2795 2817 1
  2077 2795 2797 1
  2078 2795 2816 1
  2079 2796 2798 1
  2080 2796 2797 1
  2081 2798 2800 1
  2082 2798 2799 1
  2083 2799 2804 1
  2084 2800 2802 1
  2085 2800 2801 1
  2086 2802 2804 1
  2087 2802 2803 1
  2088 2804 2815 1
  2089 2805 2811 am
  2090 2805 2806 1
  2091 2806 2807 2
  2092 2806 2808 2
  2093 2808 2809 1
  2094 2809 2815 ar
  2095 2809 2810 ar
  2096 2810 2811 1
  2097 2810 2813 ar
  2098 2811 2812 2
  2099 2813 2814 ar
  2100 2814 2815 ar
  2101 2768 2795 1
  2102 2829 2849 1
  2103 2829 2850 1
  2104 2829 2831 1
  2105 2830 2832 1
  2106 2830 2831 1
  2107 2832 2833 1
  2108 2832 2834 1
  2109 2833 2838 1
  2110 2834 2835 1
  2111 2834 2836 1
  2112 2836 2838 1
  2113 2836 2837 1
  2114 2838 2848 1
  2115 2839 2840 ar
  2116 2839 2844 ar
  2117 2840 2841 ar
  2118 2841 2842 ar
  2119 2842 2848 ar
  2120 2842 2843 ar
  2121 2843 2846 ar
  2122 2843 2844 ar
  2123 2844 2845 1
  2124 2846 2847 ar
  2125 2847 2848 ar
  2126 2801 2829 1
  2127 2862 2884 1
  2128 2862 2864 1
  2129 2862 2883 1
  2130 2863 2865 1
  2131 2863 2864 1
  2132 2865 2867 1
  2133 2865 2866 1
  2134 2866 2871 1
  2135 2867 2869 1
  2136 2867 2868 1
  2137 2869 2871 1
  2138 2869 2870 1
  2139 2871 2882 1
  2140 2872 2878 am
  2141 2872 2873 1
  2142 2873 2874 2
  2143 2873 2875 2
  2144 2875 2876 1
  2145 2876 2882 ar
  2146 2876 2877 ar
  2147 2877 2878 1
  2148 2877 2880 ar
  2149 2878 2879 2
  2150 2880 2881 ar
  2151 2881 2882 ar
  2152 2835 2862 1
  2153 2896 2914 1
  2154 2896 2915 1
  2155 2896 2898 1
  2156 2897 2898 1
  2157 2897 2899 1
  2158 2899 2901 1
  2159 2899 2900 1
  2160 2900 2905 1
  2161 2901 2903 1
  2162 2901 2902 1
  2163 2903 2904 1
  2164 2903 2905 1
  2165 2905 2906 1
  2166 2906 2907 am
  2167 2906 2913 1
  2168 2907 2908 2
  2169 2907 2909 am
  2170 2909 2910 am
  2171 2910 2912 1
  2172 2910 2911 2
  2173 2912 2913 2
  2174 2868 2896 1
  2175 2926 2944 1
  2176 2926 2945 1
  2177 2926 2928 1
  2178 2927 2928 1
  2179 2927 2929 1
  2180 2929 2931 1
  2181 2929 2930 1
  2182 2930 2935 1
  2183 2931 2933 1
  2184 2931 2932 1
  2185 2933 2934 1
  2186 2933 2935 1
  2187 2935 2936 1
  2188 2936 2937 am
  2189 2936 2943 1
  2190 2937 2939 1
  2191 2937 2938 2
  2192 2939 2940 2
  2193 2940 2942 2
  2194 2940 2941 2
  2195 2942 2943 2
  2196 2902 2926 1
  2197 2957 2975 1
  2198 2957 2976 1
  2199 2957 2959 1
  2200 2958 2959 1
  2201 2958 2960 1
  2202 2960 2962 1
  2203 2960 2961 1
  2204 2961 2966 1
  2205 2962 2964 1
  2206 2962 2963 1
  2207 2964 2965 1
  2208 2964 2966 1
  2209 2966 2967 1
  2210 2967 2968 am
  2211 2967 2974 1
  2212 2968 2969 2
  2213 2968 2970 am
  2214 2970 2971 am
  2215 2971 2973 1
  2216 2971 2972 2
  2217 2973 2974 2
  2218 2932 2957 1
  2219 2987 3009 1
  2220 2987 2989 1
  2221 2987 3008 1
  2222 2988 2990 1
  2223 2988 2989 1
  2224 2990 2992 1
  2225 2990 2991 1
  2226 2991 2996 1
  2227 2992 2994 1
  2228 2992 2993 1
  2229 2994 2996 1
  2230 2994 2995 1
  2231 2996 3007 1
  2232 2997 3003 am
  2233 2997 2998 1
  2234 2998 2999 2
  2235 2998 3000 2
  2236 3000 3001 1
  2237 3001 3007 ar
  2238 3001 3002 ar
  2239 3002 3003 1
  2240 3002 3005 ar
  2241 3003 3004 2
  2242 3005 3006 ar
  2243 3006 3007 ar
  2244 2963 2987 1
  2245 3021 3043 1
  2246 3021 3023 1
  2247 3021 3042 1
  2248 3022 3024 1
  2249 3022 3023 1
  2250 3024 3026 1
  2251 3024 3025 1
  2252 3025 3030 1
  2253 3026 3028 1
  2254 3026 3027 1
  2255 3028 3030 1
  2256 3028 3029 1
  2257 3030 3041 1
  2258 3031 3037 am
  2259 3031 3032 1
  2260 3032 3033 2
  2261 3032 3034 2
  2262 3034 3035 1
  2263 3035 3041 ar
  2264 3035 3036 ar
  2265 3036 3037 1
  2266 3036 3039 ar
  2267 3037 3038 2
  2268 3039 3040 ar
  2269 3040 3041 ar
  2270 2993 3021 1
  2271 3055 3075 1
  2272 3055 3076 1
  2273 3055 3057 1
  2274 3056 3058 1
  2275 3056 3057 1
  2276 3058 3059 1
  2277 3058 3060 1
  2278 3059 3064 1
  2279 3060 3061 1
  2280 3060 3062 1
  2281 3062 3064 1
  2282 3062 3063 1
  2283 3064 3074 1
  2284 3065 3066 ar
  2285 3065 3070 ar
  2286 3066 3067 ar
  2287 3067 3068 ar
  2288 3068 3074 ar
  2289 3068 3069 ar
  2290 3069 3072 ar
  2291 3069 3070 ar
  2292 3070 3071 1
  2293 3072 3073 ar
  2294 3073 3074 ar
  2295 3027 3055 1
  2296 3088 3106 1
  2297 3088 3107 1
  2298 3088 3090 1
  2299 3089 3090 1
  2300 3089 3091 1
  2301 3091 3093 1
  2302 3091 3092 1
  2303 3092 3097 1
  2304 3093 3095 1
  2305 3093 3094 1
  2306 3095 3096 1
  2307 3095 3097 1
  2308 3097 3098 1
  2309 3098 3099 am
  2310 3098 3105 1
  2311 3099 3100 2
  2312 3099 3101 am
  2313 3101 3102 am
  2314 3102 3104 1
  2315 3102 3103 2
  2316 3104 3105 2
  2317 3061 3088 1
  2318 3118 3140 1
  2319 3118 3120 1
  2320 3118 3139 1
  2321 3119 3121 1
  2322 3119 3120 1
  2323 3121 3123 1
  2324 3121 3122 1
  2325 3122 3127 1
  2326 3123 3125 1
  2327 3123 3124 1
  2328 3125 3127 1
  2329 3125 3126 1
  2330 3127 3138 1
  2331 3128 3134 am
  2332 3128 3129 1
  2333 3129 3130 2
  2334 3129 3131 2
  2335 3131 3132 1
  2336 3132 3138 ar
  2337 3132 3133 ar
  2338 3133 3134 1
  2339 3133 3136 ar
  2340 3134 3135 2
  2341 3136 3137 ar
  2342 3137 3138 ar
  2343 3094 3118 1
  2344 3152 3172 1
  2345 3152 3173 1
  2346 3152 3154 1
  2347 3153 3155 1
  2348 3153 3154 1
  2349 3155 3156 1
  2350 3155 3157 1
  2351 3156 3161 1
  2352 3157 3158 1
  2353 3157 3159 1
  2354 3159 3161 1
  2355 3159 3160 1
  2356 3161 3171 1
  2357 3162 3163 ar
  2358 3162 3167 ar
  2359 3163 3164 ar
  2360 3164 3165 ar
  2361 3165 3171 ar
  2362 3165 3166 ar
  2363 3166 3169 ar
  2364 3166 3167 ar
  2365 3167 3168 1
  2366 3169 3170 ar
  2367 3170 3171 ar
  2368 3124 3152 1
  2369 3185 3207 1
  2370 3185 3187 1
  2371 3185 3206 1
  2372 3186 3188 1
  2373 3186 3187 1
  2374 3188 3190 1
  2375 3188 3189 1
  2376 3189 3194 1
  2377 3190 3192 1
  2378 3190 3191 1
  2379 3192 3194 1
  2380 3192 3193 1
  2381 3194 3205 1
  2382 3195 3201 am
  2383 3195 3196 1
  2384 3196 3197 2
  2385 3196 3198 2
  2386 3198 3199 1
  2387 3199 3205 ar
  2388 3199 3200 ar
  2389 3200 3201 1
  2390 3200 3203 ar
  2391 3201 3202 2
  2392 3203 3204 ar
  2393 3204 3205 ar
  2394 3158 3185 1
  2395 3219 3239 1
  2396 3219 3240 1
  2397 3219 3221 1
  2398 3220 3222 1
  2399 3220 3221 1
  2400 3222 3223 1
  2401 3222 3224 1
  2402 3223 3228 1
  2403 3224 3225 1
  2404 3224 3226 1
  2405 3226 3228 1
  2406 3226 3227 1
  2407 3228 3238 1
  2408 3229 3230 ar
  2409 3229 3234 ar
  2410 3230 3231 ar
  2411 3231 3232 ar
  2412 3232 3238 ar
  2413 3232 3233 ar
  2414 3233 3236 ar
  2415 3233 3234 ar
  2416 3234 3235 1
  2417 3236 3237 ar
  2418 3237 3238 ar
  2419 3191 3219 1
  2420 3252 3274 1
  2421 3252 3254 1
  2422 3252 3273 1
  2423 3253 3255 1
  2424 3253 3254 1
  2425 3255 3257 1
  2426 3255 3256 1
  2427 3256 3261 1
  2428 3257 3259 1
  2429 3257 3258 1
  2430 3259 3261 1
  2431 3259 3260 1
  2432 3261 3272 1
  2433 3262 3268 am
  2434 3262 3263 1
  2435 3263 3264 2
  2436 3263 3265 2
  2437 3265 3266 1
  2438 3266 3272 ar
  2439 3266 3267 ar
  2440 3267 3268 1
  2441 3267 3270 ar
  2442 3268 3269 2
  2443 3270 3271 ar
  2444 3271 3272 ar
  2445 3225 3252 1
  2446 3286 3306 1
  2447 3286 3307 1
  2448 3286 3288 1
  2449 3287 3289 1
  2450 3287 3288 1
  2451 3289 3290 1
  2452 3289 3291 1
  2453 3290 3295 1
  2454 3291 3292 1
  2455 3291 3293 1
  2456 3293 3295 1
  2457 3293 3294 1
  2458 3295 3305 1
  2459 3296 3297 ar
  2460 3296 3301 ar
  2461 3297 3298 ar
  2462 3298 3299 ar
  2463 3299 3305 ar
  2464 3299 3300 ar
  2465 3300 3303 ar
  2466 3300 3301 ar
  2467 3301 3302 1
  2468 3303 3304 ar
  2469 3304 3305 ar
  2470 3258 3286 1
  2471 3319 3339 1
  2472 3319 3340 1
  2473 3319 3321 1
  2474 3320 3322 1
  2475 3320 3321 1
  2476 3322 3323 1
  2477 3322 3324 1
  2478 3323 3328 1
  2479 3324 3325 1
  2480 3324 3326 1
  2481 3326 3328 1
  2482 3326 3327 1
  2483 3328 3338 1
  2484 3329 3330 ar
  2485 3329 3334 ar
  2486 3330 3331 ar
  2487 3331 3332 ar
  2488 3332 3338 ar
  2489 3332 3333 ar
  2490 3333 3336 ar
  2491 3333 3334 ar
  2492 3334 3335 1
  2493 3336 3337 ar
  2494 3337 3338 ar
  2495 3292 3319 1
  2496 3352 3374 1
  2497 3352 3354 1
  2498 3352 3373 1
  2499 3353 3355 1
  2500 3353 3354 1
  2501 3355 3357 1
  2502 3355 3356 1
  2503 3356 3361 1
  2504 3357 3359 1
  2505 3357 3358 1
  2506 3359 3361 1
  2507 3359 3360 1
  2508 3361 3372 1
  2509 3362 3368 am
  2510 3362 3363 1
  2511 3363 3364 2
  2512 3363 3365 2
  2513 3365 3366 1
  2514 3366 3372 ar
  2515 3366 3367 ar
  2516 3367 3368 1
  2517 3367 3370 ar
  2518 3368 3369 2
  2519 3370 3371 ar
  2520 3371 3372 ar
  2521 3325 3352 1
  2522 3386 3406 1
  2523 3386 3407 1
  2524 3386 3388 1
  2525 3387 3389 1
  2526 3387 3388 1
  2527 3389 3390 1
  2528 3389 3391 1
  2529 3390 3395 1
  2530 3391 3392 1
  2531 3391 3393 1
  2532 3393 3395 1
  2533 3393 3394 1
  2534 3395 3405 1
  2535 3396 3397 ar
  2536 3396 3401 ar
  2537 3397 3398 ar
  2538 3398 3399 ar
  2539 3399 3405 ar
  2540 3399 3400 ar
  2541 3400 3403 ar
  2542 3400 3401 ar
  2543 3401 3402 1
  2544 3403 3404 ar
  2545 3404 3405 ar
  2546 3358 3386 1
  2547 3419 3437 1
  2548 3419 3438 1
  2549 3419 3421 1
  2550 3420 3421 1
  2551 3420 3422 1
  2552 3422 3424 1
  2553 3422 3423 1
  2554 3423 3428 1
  2555 3424 3426 1
  2556 3424 3425 1
  2557 3426 3427 1
  2558 3426 3428 1
  2559 3428 3429 1
  2560 3429 3430 am
  2561 3429 3436 1
  2562 3430 3431 2
  2563 3430 3432 am
  2564 3432 3433 am
  2565 3433 3435 1
  2566 3433 3434 2
  2567 3435 3436 2
  2568 3392 3419 1
  2569 3449 3467 1
  2570 3449 3468 1
  2571 3449 3451 1
  2572 3450 3451 1
  2573 3450 3452 1
  2574 3452 3454 1
  2575 3452 3453 1
  2576 3453 3458 1
  2577 3454 3456 1
  2578 3454 3455 1
  2579 3456 3457 1
  2580 3456 3458 1
  2581 3458 3459 1
  2582 3459 3460 am
  2583 3459 3466 1
  2584 3460 3461 2
  2585 3460 3462 am
  2586 3462 3463 am
  2587 3463 3465 1
  2588 3463 3464 2
  2589 3465 3466 2
  2590 3425 3449 1
  2591 3480 3482 1
  2592 3480 3481 1
  2593 3482 3484 1
  2594 3482 3483 1
  2595 3483 3488 1
  2596 3484 3486 1
  2597 3484 3485 1
  2598 3486 3487 1
  2599 3486 3488 1
  2600 3488 3489 1
  2601 3489 3496 1
  2602 3489 3490 am
  2603 3490 3491 2
  2604 3490 3492 1
  2605 3492 3493 2
  2606 3493 3495 2
  2607 3493 3494 2
  2608 3495 3496 2
  2609 3479 3481 1
  2610 3479 3497 1
  2611 3479 3498 1
  2612 3455 3479 1
  2613   21    1 1
  2614   22    1 1
  2615   23    3 1
  2616   24    5 1
  2617   25    7 1
  2618   26    9 1
  2619   27   10 1
  2620   28   19 1
  2621   56   34 1
  2622   57   34 1
  2623   58   36 1
  2624   59   38 1
  2625   60   40 1
  2626   61   42 1
  2627   62   43 1
  2628   63   52 1
  2629   89   68 1
  2630   90   68 1
  2631   91   70 1
  2632   92   72 1
  2633   93   74 1
  2634   94   76 1
  2635   95   78 1
  2636   96   85 1
  2637  120  101 1
  2638  121  101 1
  2639  122  103 1
  2640  123  105 1
  2641  124  107 1
  2642  125  109 1
  2643  126  113 1
  2644  127  116 1
  2645  128  117 1
  2646  150  131 1
  2647  151  131 1
  2648  152  133 1
  2649  153  135 1
  2650  154  137 1
  2651  155  139 1
  2652  156  146 1
  2653  157  147 1
  2654  181  162 1
  2655  182  162 1
  2656  183  164 1
  2657  184  166 1
  2658  185  168 1
  2659  186  170 1
  2660  187  174 1
  2661  188  177 1
  2662  189  178 1
  2663  211  192 1
  2664  212  192 1
  2665  213  194 1
  2666  214  196 1
  2667  215  198 1
  2668  216  200 1
  2669  217  204 1
  2670  218  207 1
  2671  219  208 1
  2672  241  222 1
  2673  242  222 1
  2674  243  224 1
  2675  244  226 1
  2676  245  228 1
  2677  246  230 1
  2678  247  237 1
  2679  248  238 1
  2680  275  253 1
  2681  276  253 1
  2682  277  255 1
  2683  278  257 1
  2684  279  259 1
  2685  280  261 1
  2686  281  262 1
  2687  282  271 1
  2688  309  287 1
  2689  310  287 1
  2690  311  289 1
  2691  312  291 1
  2692  313  293 1
  2693  314  295 1
  2694  315  296 1
  2695  316  305 1
  2696  343  321 1
  2697  344  321 1
  2698  345  323 1
  2699  346  325 1
  2700  347  327 1
  2701  348  329 1
  2702  349  330 1
  2703  350  339 1
  2704  377  355 1
  2705  378  355 1
  2706  379  357 1
  2707  380  359 1
  2708  381  361 1
  2709  382  363 1
  2710  383  364 1
  2711  384  373 1
  2712  408  389 1
  2713  409  389 1
  2714  410  391 1
  2715  411  393 1
  2716  412  395 1
  2717  413  397 1
  2718  414  404 1
  2719  415  405 1
  2720  441  420 1
  2721  442  420 1
  2722  443  422 1
  2723  444  424 1
  2724  445  426 1
  2725  446  428 1
  2726  447  430 1
  2727  448  437 1
  2728  475  453 1
  2729  476  453 1
  2730  477  455 1
  2731  478  457 1
  2732  479  459 1
  2733  480  461 1
  2734  481  462 1
  2735  482  471 1
  2736  509  487 1
  2737  510  487 1
  2738  511  489 1
  2739  512  491 1
  2740  513  493 1
  2741  514  495 1
  2742  515  496 1
  2743  516  505 1
  2744  543  521 1
  2745  544  521 1
  2746  545  523 1
  2747  546  525 1
  2748  547  527 1
  2749  548  529 1
  2750  549  530 1
  2751  550  539 1
  2752  574  555 1
  2753  575  555 1
  2754  576  557 1
  2755  577  559 1
  2756  578  561 1
  2757  579  563 1
  2758  580  567 1
  2759  581  570 1
  2760  582  571 1
  2761  607  585 1
  2762  608  585 1
  2763  609  587 1
  2764  610  589 1
  2765  611  591 1
  2766  612  593 1
  2767  613  594 1
  2768  614  603 1
  2769  640  619 1
  2770  641  619 1
  2771  642  621 1
  2772  643  623 1
  2773  644  625 1
  2774  645  627 1
  2775  646  629 1
  2776  647  636 1
  2777  673  652 1
  2778  674  652 1
  2779  675  654 1
  2780  676  656 1
  2781  677  658 1
  2782  678  660 1
  2783  679  662 1
  2784  680  669 1
  2785  706  685 1
  2786  707  685 1
  2787  708  687 1
  2788  709  689 1
  2789  710  691 1
  2790  711  693 1
  2791  712  695 1
  2792  713  702 1
  2793  737  718 1
  2794  738  718 1
  2795  739  720 1
  2796  740  722 1
  2797  741  724 1
  2798  742  726 1
  2799  743  730 1
  2800  744  733 1
  2801  745  734 1
  2802  767  748 1
  2803  768  748 1
  2804  769  750 1
  2805  770  752 1
  2806  771  754 1
  2807  772  756 1
  2808  773  760 1
  2809  774  763 1
  2810  775  764 1
  2811  797  778 1
  2812  798  778 1
  2813  799  780 1
  2814  800  782 1
  2815  801  784 1
  2816  802  786 1
  2817  803  793 1
  2818  804  794 1
  2819  828  809 1
  2820  829  809 1
  2821  830  811 1
  2822  831  813 1
  2823  832  815 1
  2824  833  817 1
  2825  834  824 1
  2826  835  825 1
  2827  859  840 1
  2828  860  840 1
  2829  861  842 1
  2830  862  844 1
  2831  863  846 1
  2832  864  848 1
  2833  865  855 1
  2834  866  856 1
  2835  893  871 1
  2836  894  871 1
  2837  895  873 1
  2838  896  875 1
  2839  897  877 1
  2840  898  879 1
  2841  899  880 1
  2842  900  889 1
  2843  926  905 1
  2844  927  905 1
  2845  928  907 1
  2846  929  909 1
  2847  930  911 1
  2848  931  913 1
  2849  932  915 1
  2850  933  922 1
  2851  957  938 1
  2852  958  938 1
  2853  959  940 1
  2854  960  942 1
  2855  961  944 1
  2856  962  946 1
  2857  963  953 1
  2858  964  954 1
  2859  988  969 1
  2860  989  969 1
  2861  990  971 1
  2862  991  973 1
  2863  992  975 1
  2864  993  977 1
  2865  994  984 1
  2866  995  985 1
  2867 1022 1000 1
  2868 1023 1000 1
  2869 1024 1002 1
  2870 1025 1004 1
  2871 1026 1006 1
  2872 1027 1008 1
  2873 1028 1009 1
  2874 1029 1018 1
  2875 1056 1034 1
  2876 1057 1034 1
  2877 1058 1036 1
  2878 1059 1038 1
  2879 1060 1040 1
  2880 1061 1042 1
  2881 1062 1043 1
  2882 1063 1052 1
  2883 1087 1068 1
  2884 1088 1068 1
  2885 1089 1070 1
  2886 1090 1072 1
  2887 1091 1074 1
  2888 1092 1076 1
  2889 1093 1080 1
  2890 1094 1083 1
  2891 1095 1084 1
  2892 1120 1098 1
  2893 1121 1098 1
  2894 1122 1100 1
  2895 1123 1102 1
  2896 1124 1104 1
  2897 1125 1106 1
  2898 1126 1107 1
  2899 1127 1116 1
  2900 1154 1132 1
  2901 1155 1132 1
  2902 1156 1134 1
  2903 1157 1136 1
  2904 1158 1138 1
  2905 1159 1140 1
  2906 1160 1141 1
  2907 1161 1150 1
  2908 1185 1166 1
  2909 1186 1166 1
  2910 1187 1168 1
  2911 1188 1170 1
  2912 1189 1172 1
  2913 1190 1174 1
  2914 1191 1178 1
  2915 1192 1181 1
  2916 1193 1182 1
  2917 1217 1196 1
  2918 1218 1196 1
  2919 1219 1198 1
  2920 1220 1200 1
  2921 1221 1202 1
  2922 1222 1204 1
  2923 1223 1206 1
  2924 1224 1213 1
  2925 1248 1229 1
  2926 1249 1229 1
  2927 1250 1231 1
  2928 1251 1233 1
  2929 1252 1235 1
  2930 1253 1237 1
  2931 1254 1241 1
  2932 1255 1244 1
  2933 1256 1245 1
  2934 1280 1259 1
  2935 1281 1259 1
  2936 1282 1261 1
  2937 1283 1263 1
  2938 1284 1265 1
  2939 1285 1267 1
  2940 1286 1269 1
  2941 1287 1276 1
  2942 1314 1292 1
  2943 1315 1292 1
  2944 1316 1294 1
  2945 1317 1296 1
  2946 1318 1298 1
  2947 1319 1300 1
  2948 1320 1301 1
  2949 1321 1310 1
  2950 1345 1326 1
  2951 1346 1326 1
  2952 1347 1328 1
  2953 1348 1330 1
  2954 1349 1332 1
  2955 1350 1334 1
  2956 1351 1338 1
  2957 1352 1341 1
  2958 1353 1342 1
  2959 1375 1356 1
  2960 1376 1356 1
  2961 1377 1358 1
  2962 1378 1360 1
  2963 1379 1362 1
  2964 1380 1364 1
  2965 1381 1371 1
  2966 1382 1372 1
  2967 1406 1387 1
  2968 1407 1387 1
  2969 1408 1389 1
  2970 1409 1391 1
  2971 1410 1393 1
  2972 1411 1395 1
  2973 1412 1402 1
  2974 1413 1403 1
  2975 1439 1418 1
  2976 1440 1418 1
  2977 1441 1420 1
  2978 1442 1422 1
  2979 1443 1424 1
  2980 1444 1426 1
  2981 1445 1428 1
  2982 1446 1435 1
  2983 1470 1451 1
  2984 1471 1451 1
  2985 1472 1453 1
  2986 1473 1455 1
  2987 1474 1457 1
  2988 1475 1459 1
  2989 1476 1466 1
  2990 1477 1467 1
  2991 1504 1482 1
  2992 1505 1482 1
  2993 1506 1484 1
  2994 1507 1486 1
  2995 1508 1488 1
  2996 1509 1490 1
  2997 1510 1491 1
  2998 1511 1500 1
  2999 1537 1516 1
  3000 1538 1516 1
  3001 1539 1518 1
  3002 1540 1520 1
  3003 1541 1522 1
  3004 1542 1524 1
  3005 1543 1526 1
  3006 1544 1533 1
  3007 1570 1549 1
  3008 1571 1549 1
  3009 1572 1551 1
  3010 1573 1553 1
  3011 1574 1555 1
  3012 1575 1557 1
  3013 1576 1559 1
  3014 1577 1566 1
  3015 1603 1582 1
  3016 1604 1582 1
  3017 1605 1584 1
  3018 1606 1586 1
  3019 1607 1588 1
  3020 1608 1590 1
  3021 1609 1592 1
  3022 1610 1599 1
  3023 1637 1615 1
  3024 1638 1615 1
  3025 1639 1617 1
  3026 1640 1619 1
  3027 1641 1621 1
  3028 1642 1623 1
  3029 1643 1624 1
  3030 1644 1633 1
  3031 1668 1649 1
  3032 1669 1649 1
  3033 1670 1651 1
  3034 1671 1653 1
  3035 1672 1655 1
  3036 1673 1657 1
  3037 1674 1664 1
  3038 1675 1665 1
  3039 1699 1680 1
  3040 1700 1680 1
  3041 1701 1682 1
  3042 1702 1684 1
  3043 1703 1686 1
  3044 1704 1688 1
  3045 1705 1692 1
  3046 1706 1695 1
  3047 1707 1696 1
  3048 1730 1710 1
  3049 1731 1710 1
  3050 1732 1712 1
  3051 1733 1714 1
  3052 1734 1716 1
  3053 1735 1718 1
  3054 1736 1719 1
  3055 1737 1728 1
  3056 1762 1743 1
  3057 1763 1743 1
  3058 1764 1745 1
  3059 1765 1747 1
  3060 1766 1749 1
  3061 1767 1751 1
  3062 1768 1758 1
  3063 1769 1759 1
  3064 1793 1774 1
  3065 1794 1774 1
  3066 1795 1776 1
  3067 1796 1778 1
  3068 1797 1780 1
  3069 1798 1782 1
  3070 1799 1786 1
  3071 1800 1789 1
  3072 1801 1790 1
  3073 1823 1804 1
  3074 1824 1804 1
  3075 1825 1806 1
  3076 1826 1808 1
  3077 1827 1810 1
  3078 1828 1812 1
  3079 1829 1816 1
  3080 1830 1819 1
  3081 1831 1820 1
  3082 1853 1834 1
  3083 1854 1834 1
  3084 1855 1836 1
  3085 1856 1838 1
  3086 1857 1840 1
  3087 1858 1842 1
  3088 1859 1846 1
  3089 1860 1849 1
  3090 1861 1850 1
  3091 1886 1864 1
  3092 1887 1864 1
  3093 1888 1866 1
  3094 1889 1868 1
  3095 1890 1870 1
  3096 1891 1872 1
  3097 1892 1873 1
  3098 1893 1882 1
  3099 1919 1898 1
  3100 1920 1898 1
  3101 1921 1900 1
  3102 1922 1902 1
  3103 1923 1904 1
  3104 1924 1906 1
  3105 1925 1908 1
  3106 1926 1915 1
  3107 1950 1931 1
  3108 1951 1931 1
  3109 1952 1933 1
  3110 1953 1935 1
  3111 1954 1937 1
  3112 1955 1939 1
  3113 1956 1943 1
  3114 1957 1946 1
  3115 1958 1947 1
  3116 1980 1961 1
  3117 1981 1961 1
  3118 1982 1963 1
  3119 1983 1965 1
  3120 1984 1967 1
  3121 1985 1969 1
  3122 1986 1973 1
  3123 1987 1976 1
  3124 1988 1977 1
  3125 2010 1991 1
  3126 2011 1991 1
  3127 2012 1993 1
  3128 2013 1995 1
  3129 2014 1997 1
  3130 2015 1999 1
  3131 2016 2003 1
  3132 2017 2006 1
  3133 2018 2007 1
  3134 2043 2021 1
  3135 2044 2021 1
  3136 2045 2023 1
  3137 2046 2025 1
  3138 2047 2027 1
  3139 2048 2029 1
  3140 2049 2030 1
  3141 2050 2039 1
  3142 2077 2055 1
  3143 2078 2055 1
  3144 2079 2057 1
  3145 2080 2059 1
  3146 2081 2061 1
  3147 2082 2063 1
  3148 2083 2064 1
  3149 2084 2073 1
  3150 2108 2089 1
  3151 2109 2089 1
  3152 2110 2091 1
  3153 2111 2093 1
  3154 2112 2095 1
  3155 2113 2097 1
  3156 2114 2101 1
  3157 2115 2104 1
  3158 2116 2105 1
  3159 2141 2119 1
  3160 2142 2119 1
  3161 2143 2121 1
  3162 2144 2123 1
  3163 2145 2125 1
  3164 2146 2127 1
  3165 2147 2128 1
  3166 2148 2137 1
  3167 2174 2153 1
  3168 2175 2153 1
  3169 2176 2155 1
  3170 2177 2157 1
  3171 2178 2159 1
  3172 2179 2161 1
  3173 2180 2163 1
  3174 2181 2170 1
  3175 2207 2186 1
  3176 2208 2186 1
  3177 2209 2188 1
  3178 2210 2190 1
  3179 2211 2192 1
  3180 2212 2194 1
  3181 2213 2196 1
  3182 2214 2203 1
  3183 2240 2219 1
  3184 2241 2219 1
  3185 2242 2221 1
  3186 2243 2223 1
  3187 2244 2225 1
  3188 2245 2227 1
  3189 2246 2229 1
  3190 2247 2236 1
  3191 2271 2252 1
  3192 2272 2252 1
  3193 2273 2254 1
  3194 2274 2256 1
  3195 2275 2258 1
  3196 2276 2260 1
  3197 2277 2264 1
  3198 2278 2267 1
  3199 2279 2268 1
  3200 2301 2282 1
  3201 2302 2282 1
  3202 2303 2284 1
  3203 2304 2286 1
  3204 2305 2288 1
  3205 2306 2290 1
  3206 2307 2294 1
  3207 2308 2297 1
  3208 2309 2298 1
  3209 2331 2312 1
  3210 2332 2312 1
  3211 2333 2314 1
  3212 2334 2316 1
  3213 2335 2318 1
  3214 2336 2320 1
  3215 2337 2327 1
  3216 2338 2328 1
  3217 2362 2343 1
  3218 2363 2343 1
  3219 2364 2345 1
  3220 2365 2347 1
  3221 2366 2349 1
  3222 2367 2351 1
  3223 2368 2358 1
  3224 2369 2359 1
  3225 2395 2374 1
  3226 2396 2374 1
  3227 2397 2376 1
  3228 2398 2378 1
  3229 2399 2380 1
  3230 2400 2382 1
  3231 2401 2384 1
  3232 2402 2391 1
  3233 2428 2407 1
  3234 2429 2407 1
  3235 2430 2409 1
  3236 2431 2411 1
  3237 2432 2413 1
  3238 2433 2415 1
  3239 2434 2417 1
  3240 2435 2424 1
  3241 2461 2440 1
  3242 2462 2440 1
  3243 2463 2442 1
  3244 2464 2444 1
  3245 2465 2446 1
  3246 2466 2448 1
  3247 2467 2450 1
  3248 2468 2457 1
  3249 2494 2473 1
  3250 2495 2473 1
  3251 2496 2475 1
  3252 2497 2477 1
  3253 2498 2479 1
  3254 2499 2481 1
  3255 2500 2483 1
  3256 2501 2490 1
  3257 2525 2506 1
  3258 2526 2506 1
  3259 2527 2508 1
  3260 2528 2510 1
  3261 2529 2512 1
  3262 2530 2514 1
  3263 2531 2521 1
  3264 2532 2522 1
  3265 2556 2537 1
  3266 2557 2537 1
  3267 2558 2539 1
  3268 2559 2541 1
  3269 2560 2543 1
  3270 2561 2545 1
  3271 2562 2552 1
  3272 2563 2553 1
  3273 2590 2568 1
  3274 2591 2568 1
  3275 2592 2570 1
  3276 2593 2572 1
  3277 2594 2574 1
  3278 2595 2576 1
  3279 2596 2577 1
  3280 2597 2586 1
  3281 2623 2602 1
  3282 2624 2602 1
  3283 2625 2604 1
  3284 2626 2606 1
  3285 2627 2608 1
  3286 2628 2610 1
  3287 2629 2612 1
  3288 2630 2619 1
  3289 2654 2635 1
  3290 2655 2635 1
  3291 2656 2637 1
  3292 2657 2639 1
  3293 2658 2641 1
  3294 2659 2643 1
  3295 2660 2650 1
  3296 2661 2651 1
  3297 2687 2666 1
  3298 2688 2666 1
  3299 2689 2668 1
  3300 2690 2670 1
  3301 2691 2672 1
  3302 2692 2674 1
  3303 2693 2676 1
  3304 2694 2683 1
  3305 2721 2699 1
  3306 2722 2699 1
  3307 2723 2701 1
  3308 2724 2703 1
  3309 2725 2705 1
  3310 2726 2707 1
  3311 2727 2708 1
  3312 2728 2717 1
  3313 2752 2733 1
  3314 2753 2733 1
  3315 2754 2735 1
  3316 2755 2737 1
  3317 2756 2739 1
  3318 2757 2741 1
  3319 2758 2745 1
  3320 2759 2748 1
  3321 2760 2749 1
  3322 2784 2763 1
  3323 2785 2763 1
  3324 2786 2765 1
  3325 2787 2767 1
  3326 2788 2769 1
  3327 2789 2771 1
  3328 2790 2773 1
  3329 2791 2780 1
  3330 2818 2796 1
  3331 2819 2796 1
  3332 2820 2798 1
  3333 2821 2800 1
  3334 2822 2802 1
  3335 2823 2804 1
  3336 2824 2805 1
  3337 2825 2814 1
  3338 2851 2830 1
  3339 2852 2830 1
  3340 2853 2832 1
  3341 2854 2834 1
  3342 2855 2836 1
  3343 2856 2838 1
  3344 2857 2840 1
  3345 2858 2847 1
  3346 2885 2863 1
  3347 2886 2863 1
  3348 2887 2865 1
  3349 2888 2867 1
  3350 2889 2869 1
  3351 2890 2871 1
  3352 2891 2872 1
  3353 2892 2881 1
  3354 2916 2897 1
  3355 2917 2897 1
  3356 2918 2899 1
  3357 2919 2901 1
  3358 2920 2903 1
  3359 2921 2905 1
  3360 2922 2909 1
  3361 2923 2912 1
  3362 2924 2913 1
  3363 2946 2927 1
  3364 2947 2927 1
  3365 2948 2929 1
  3366 2949 2931 1
  3367 2950 2933 1
  3368 2951 2935 1
  3369 2952 2942 1
  3370 2953 2943 1
  3371 2977 2958 1
  3372 2978 2958 1
  3373 2979 2960 1
  3374 2980 2962 1
  3375 2981 2964 1
  3376 2982 2966 1
  3377 2983 2970 1
  3378 2984 2973 1
  3379 2985 2974 1
  3380 3010 2988 1
  3381 3011 2988 1
  3382 3012 2990 1
  3383 3013 2992 1
  3384 3014 2994 1
  3385 3015 2996 1
  3386 3016 2997 1
  3387 3017 3006 1
  3388 3044 3022 1
  3389 3045 3022 1
  3390 3046 3024 1
  3391 3047 3026 1
  3392 3048 3028 1
  3393 3049 3030 1
  3394 3050 3031 1
  3395 3051 3040 1
  3396 3077 3056 1
  3397 3078 3056 1
  3398 3079 3058 1
  3399 3080 3060 1
  3400 3081 3062 1
  3401 3082 3064 1
  3402 3083 3066 1
  3403 3084 3073 1
  3404 3108 3089 1
  3405 3109 3089 1
  3406 3110 3091 1
  3407 3111 3093 1
  3408 3112 3095 1
  3409 3113 3097 1
  3410 3114 3101 1
  3411 3115 3104 1
  3412 3116 3105 1
  3413 3141 3119 1
  3414 3142 3119 1
  3415 3143 3121 1
  3416 3144 3123 1
  3417 3145 3125 1
  3418 3146 3127 1
  3419 3147 3128 1
  3420 3148 3137 1
  3421 3174 3153 1
  3422 3175 3153 1
  3423 3176 3155 1
  3424 3177 3157 1
  3425 3178 3159 1
  3426 3179 3161 1
  3427 3180 3163 1
  3428 3181 3170 1
  3429 3208 3186 1
  3430 3209 3186 1
  3431 3210 3188 1
  3432 3211 3190 1
  3433 3212 3192 1
  3434 3213 3194 1
  3435 3214 3195 1
  3436 3215 3204 1
  3437 3241 3220 1
  3438 3242 3220 1
  3439 3243 3222 1
  3440 3244 3224 1
  3441 3245 3226 1
  3442 3246 3228 1
  3443 3247 3230 1
  3444 3248 3237 1
  3445 3275 3253 1
  3446 3276 3253 1
  3447 3277 3255 1
  3448 3278 3257 1
  3449 3279 3259 1
  3450 3280 3261 1
  3451 3281 3262 1
  3452 3282 3271 1
  3453 3308 3287 1
  3454 3309 3287 1
  3455 3310 3289 1
  3456 3311 3291 1
  3457 3312 3293 1
  3458 3313 3295 1
  3459 3314 3297 1
  3460 3315 3304 1
  3461 3341 3320 1
  3462 3342 3320 1
  3463 3343 3322 1
  3464 3344 3324 1
  3465 3345 3326 1
  3466 3346 3328 1
  3467 3347 3330 1
  3468 3348 3337 1
  3469 3375 3353 1
  3470 3376 3353 1
  3471 3377 3355 1
  3472 3378 3357 1
  3473 3379 3359 1
  3474 3380 3361 1
  3475 3381 3362 1
  3476 3382 3371 1
  3477 3408 3387 1
  3478 3409 3387 1
  3479 3410 3389 1
  3480 3411 3391 1
  3481 3412 3393 1
  3482 3413 3395 1
  3483 3414 3397 1
  3484 3415 3404 1
  3485 3439 3420 1
  3486 3440 3420 1
  3487 3441 3422 1
  3488 3442 3424 1
  3489 3443 3426 1
  3490 3444 3428 1
  3491 3445 3432 1
  3492 3446 3435 1
  3493 3447 3436 1
  3494 3469 3450 1
  3495 3470 3450 1
  3496 3471 3452 1
  3497 3472 3454 1
  3498 3473 3456 1
  3499 3474 3458 1
  3500 3475 3462 1
  3501 3476 3465 1
  3502 3477 3466 1
  3503 3499 3480 1
  3504 3500 3480 1
  3505 3501 3482 1
  3506 3502 3484 1
  3507 3503 3486 1
  3508 3504 3488 1
  3509 3505 3495 1
  3510 3506 3496 1
  3511   29   12 1
  3512   30   12 1
  3513   64   45 1
  3514   65   45 1
  3515  158  145 1
  3516  159  145 1
  3517  249  236 1
  3518  250  236 1
  3519  283  264 1
  3520  284  264 1
  3521  317  298 1
  3522  318  298 1
  3523  351  332 1
  3524  352  332 1
  3525  385  366 1
  3526  386  366 1
  3527  416  403 1
  3528  417  403 1
  3529  483  464 1
  3530  484  464 1
  3531  517  498 1
  3532  518  498 1
  3533  551  532 1
  3534  552  532 1
  3535  615  596 1
  3536  616  596 1
  3537  805  792 1
  3538  806  792 1
  3539  836  823 1
  3540  837  823 1
  3541  867  854 1
  3542  868  854 1
  3543  901  882 1
  3544  902  882 1
  3545  965  952 1
  3546  966  952 1
  3547  996  983 1
  3548  997  983 1
  3549 1030 1011 1
  3550 1031 1011 1
  3551 1064 1045 1
  3552 1065 1045 1
  3553 1128 1109 1
  3554 1129 1109 1
  3555 1162 1143 1
  3556 1163 1143 1
  3557 1322 1303 1
  3558 1323 1303 1
  3559 1383 1370 1
  3560 1384 1370 1
  3561 1414 1401 1
  3562 1415 1401 1
  3563 1478 1465 1
  3564 1479 1465 1
  3565 1512 1493 1
  3566 1513 1493 1
  3567 1645 1626 1
  3568 1646 1626 1
  3569 1676 1663 1
  3570 1677 1663 1
  3571 1738 1721 1
  3572 1739 1721 1
  3573 1770 1757 1
  3574 1771 1757 1
  3575 1894 1875 1
  3576 1895 1875 1
  3577 2051 2032 1
  3578 2052 2032 1
  3579 2085 2066 1
  3580 2086 2066 1
  3581 2149 2130 1
  3582 2150 2130 1
  3583 2339 2326 1
  3584 2340 2326 1
  3585 2370 2357 1
  3586 2371 2357 1
  3587 2533 2520 1
  3588 2534 2520 1
  3589 2564 2551 1
  3590 2565 2551 1
  3591 2598 2579 1
  3592 2599 2579 1
  3593 2662 2649 1
  3594 2663 2649 1
  3595 2729 2710 1
  3596 2730 2710 1
  3597 2826 2807 1
  3598 2827 2807 1
  3599 2893 2874 1
  3600 2894 2874 1
  3601 2954 2941 1
  3602 2955 2941 1
  3603 3018 2999 1
  3604 3019 2999 1
  3605 3052 3033 1
  3606 3053 3033 1
  3607 3149 3130 1
  3608 3150 3130 1
  3609 3216 3197 1
  3610 3217 3197 1
  3611 3283 3264 1
  3612 3284 3264 1
  3613 3383 3364 1
  3614 3384 3364 1
  3615 3507 3494 1
  3616 3508 3494 1
  3617 3285 3260 1
  3618 3249 3227 1
  3619 1927 1905 1
  3620  967  945 1
  3621 2310 2289 1
  3622  903  878 1
  3623 2566 2544 1
  3624  998  976 1
  3625 2828 2803 1
  3626 3218 3193 1
  3627  617  592 1
  3628 2631 2617 1
  3629 2632 2617 1
  3630 2792 2778 1
  3631 2793 2778 1
  3632 3349 3335 1
  3633 3350 3335 1
  3634 1447 1433 1
  3635 1448 1433 1
  3636  648  634 1
  3637  649  634 1
  3638 2403 2389 1
  3639 2404 2389 1
  3640 1928 1913 1
  3641 1929 1913 1
  3642 1288 1274 1
  3643 1289 1274 1
  3644 2248 2234 1
  3645 2249 2234 1
  3646 1225 1211 1
  3647 1226 1211 1
  3648 1545 1531 1
  3649 1546 1531 1
  3650 2182 2168 1
  3651 2183 2168 1
  3652 1611 1597 1
  3653 1612 1597 1
  3654  681  667 1
  3655  682  667 1
  3656 2436 2422 1
  3657 2437 2422 1
  3658  449  435 1
  3659  450  435 1
  3660 3316 3302 1
  3661 3317 3302 1
  3662  934  920 1
  3663  935  920 1
  3664 3085 3071 1
  3665 3086 3071 1
  3666 2695 2681 1
  3667 2696 2681 1
  3668 2215 2201 1
  3669 2216 2201 1
  3670 1578 1564 1
  3671 1579 1564 1
  3672 3250 3235 1
  3673 3251 3235 1
  3674 2859 2845 1
  3675 2860 2845 1
  3676   97   83 1
  3677   98   83 1
  3678 3416 3402 1
  3679 3417 3402 1
  3680 3182 3168 1
  3681 3183 3168 1
  3682  714  700 1
  3683  715  700 1
  3684 2469 2455 1
  3685 2470 2455 1
  3686 2502 2488 1
  3687 2503 2488 1
  3688 1896 1871 1
  3689 1257 1236 1
  3690 2535 2513 1
  3691  285  260 1
  3692 1096 1075 1
  3693  776  755 1
  3694 1514 1489 1
  3695  353  328 1
  3696 1480 1458 1
  3697  387  362 1
  3698   99   75 1
  3699  838  816 1
  3700  418  396 1
  3701 1449 1425 1
  3702 2184 2160 1
  3703  583  562 1
  3704   31    2 1
  3705 1290 1266 1
  3706 2217 2193 1
  3707  129  108 1
  3708 1772 1750 1
  3709  319  294 1
  3710 2280 2259 1
  3711  160  138 1
  3712 2895 2870 1
  3713  485  460 1
  3714 1832 1811 1
  3715 1066 1041 1
  3716  650  626 1
  3717 1862 1841 1
  3718 1740 1717 1
  3719  746  725 1
  3720  519  494 1
  3721 2341 2319 1
  3722 2697 2673 1
  3723  683  659 1
  3724 2925 2904 1
  3725 1678 1656 1
  3726  220  199 1
  3727 2372 2350 1
  3728 1032 1007 1
  3729  553  528 1
  3730 1416 1394 1
  3731  451  427 1
  3732 2664 2642 1
  3733  716  692 1
  3734  251  229 1
  3735 2731 2706 1
  3736 1613 1589 1
  3737 1164 1139 1
  3738 3054 3029 1
  3739 1194 1173 1
  3740 1989 1968 1
  3741 3385 3360 1
  3742 2438 2414 1
  3743 2117 2096 1
  3744 1324 1299 1
  3745 2761 2740 1
  3746 2250 2226 1
  3747 3184 3160 1
  3748 3087 3063 1
  3749 1647 1622 1
  3750 3418 3394 1
  3751 2600 2575 1
  3752 2471 2447 1
  3753 2633 2609 1
  3754 2794 2770 1
  3755 1354 1333 1
  3756 2956 2934 1
  3757 1130 1105 1
  3758 3117 3096 1
  3759 1959 1938 1
  3760 2019 1998 1
  3761 1802 1781 1
  3762 3448 3427 1
  3763   32    8 1
  3764 1547 1523 1
  3765 1385 1363 1
  3766 2151 2126 1
  3767  936  912 1
  3768 2986 2965 1
  3769 3151 3126 1
  3770 2504 2480 1
  3771 3318 3294 1
  3772 1708 1685 1
  3773 1741 1711 1
  3774 2053 2028 1
  3775  807  785 1
  3776 1227 1203 1
  3777   66   41 1
  3778 1580 1556 1
  3779 3020 2995 1
  3780 2861 2837 1
  3781  869  847 1
  3782 1709 1687 1
  3783  190  169 1
  3784 3478 3457 1
  3785 2087 2062 1
  3786 3509 3485 1
  3787 3351 3327 1
  3788 3510 3487 1
  3789 2405 2381 1
@<TRIPOS>SUBSTRUCTURE
     1   G     3 RESIDUE           4 X       G     1 ROOT
     2   G    36 RESIDUE           4 X       G     2
     3   A    70 RESIDUE           4 X       A     2
     4   U   103 RESIDUE           4 X       U     2
     5   C   133 RESIDUE           4 X       C     2
     6   U   164 RESIDUE           4 X       U     2
     7   U   194 RESIDUE           4 X       U     2
     8   C   224 RESIDUE           4 X       C     2
     9   G   255 RESIDUE           4 X       G     2
    10   G   289 RESIDUE           4 X       G     2
    11   G   323 RESIDUE           4 X       G     2
    12   G   357 RESIDUE           4 X       G     2
    13   C   391 RESIDUE           4 X       C     2
    14   A   422 RESIDUE           4 X       A     2
    15   G   455 RESIDUE           4 X       G     2
    16   G   489 RESIDUE           4 X       G     2
    17   G   523 RESIDUE           4 X       G     2
    18   U   557 RESIDUE           4 X       U     2
    19   G   587 RESIDUE           4 X       G     2
    20   A   621 RESIDUE           4 X       A     2
    21   A   654 RESIDUE           4 X       A     2
    22   A   687 RESIDUE           4 X       A     2
    23   U   720 RESIDUE           4 X       U     2
    24   U   750 RESIDUE           4 X       U     2
    25   C   780 RESIDUE           4 X       C     2
    26   C   811 RESIDUE           4 X       C     2
    27   C   842 RESIDUE           4 X       C     2
    28   G   873 RESIDUE           4 X       G     2
    29   A   907 RESIDUE           4 X       A     2
    30   C   940 RESIDUE           4 X       C     2
    31   C   971 RESIDUE           4 X       C     2
    32   G  1002 RESIDUE           4 X       G     2
    33   G  1036 RESIDUE           4 X       G     2
    34   U  1070 RESIDUE           4 X       U     2
    35   G  1100 RESIDUE           4 X       G     2
    36   G  1134 RESIDUE           4 X       G     2
    37   U  1168 RESIDUE           4 X       U     2
    38   A  1198 RESIDUE           4 X       A     2
    39   U  1231 RESIDUE           4 X       U     2
    40   A  1261 RESIDUE           4 X       A     2
    41   G  1294 RESIDUE           4 X       G     2
    42   U  1328 RESIDUE           4 X       U     2
    43   C  1358 RESIDUE           4 X       C     2
    44   C  1389 RESIDUE           4 X       C     2
    45   A  1420 RESIDUE           4 X       A     2
    46   C  1453 RESIDUE           4 X       C     2
    47   G  1484 RESIDUE           4 X       G     2
    48   A  1518 RESIDUE           4 X       A     2
    49   A  1551 RESIDUE           4 X       A     2
    50   A  1584 RESIDUE           4 X       A     2
    51   G  1617 RESIDUE           4 X       G     2
    52   C  1651 RESIDUE           4 X       C     2
    53   U  1682 RESIDUE           4 X       U     1
    54   G  1712 RESIDUE           4 Y       G     1 ROOT
    55   C  1745 RESIDUE           4 Y       C     2
    56   U  1776 RESIDUE           4 Y       U     2
    57   U  1806 RESIDUE           4 Y       U     2
    58   U  1836 RESIDUE           4 Y       U     2
    59   G  1866 RESIDUE           4 Y       G     2
    60   A  1900 RESIDUE           4 Y       A     2
    61   U  1933 RESIDUE           4 Y       U     2
    62   U  1963 RESIDUE           4 Y       U     2
    63   U  1993 RESIDUE           4 Y       U     2
    64   G  2023 RESIDUE           4 Y       G     2
    65   G  2057 RESIDUE           4 Y       G     2
    66   U  2091 RESIDUE           4 Y       U     2
    67   G  2121 RESIDUE           4 Y       G     2
    68   A  2155 RESIDUE           4 Y       A     2
    69   A  2188 RESIDUE           4 Y       A     2
    70   A  2221 RESIDUE           4 Y       A     2
    71   U  2254 RESIDUE           4 Y       U     2
    72   U  2284 RESIDUE           4 Y       U     2
    73   C  2314 RESIDUE           4 Y       C     2
    74   C  2345 RESIDUE           4 Y       C     2
    75   A  2376 RESIDUE           4 Y       A     2
    76   A  2409 RESIDUE           4 Y       A     2
    77   A  2442 RESIDUE           4 Y       A     2
    78   A  2475 RESIDUE           4 Y       A     2
    79   C  2508 RESIDUE           4 Y       C     2
    80   C  2539 RESIDUE           4 Y       C     2
    81   G  2570 RESIDUE           4 Y       G     2
    82   A  2604 RESIDUE           4 Y       A     2
    83   C  2637 RESIDUE           4 Y       C     2
    84   A  2668 RESIDUE           4 Y       A     2
    85   G  2701 RESIDUE           4 Y       G     2
    86   U  2735 RESIDUE           4 Y       U     2
    87   A  2765 RESIDUE           4 Y       A     2
    88   G  2798 RESIDUE           4 Y       G     2
    89   A  2832 RESIDUE           4 Y       A     2
    90   G  2865 RESIDUE           4 Y       G     2
    91   U  2899 RESIDUE           4 Y       U     2
    92   C  2929 RESIDUE           4 Y       C     2
    93   U  2960 RESIDUE           4 Y       U     2
    94   G  2990 RESIDUE           4 Y       G     2
    95   G  3024 RESIDUE           4 Y       G     2
    96   A  3058 RESIDUE           4 Y       A     2
    97   U  3091 RESIDUE           4 Y       U     2
    98   G  3121 RESIDUE           4 Y       G     2
    99   A  3155 RESIDUE           4 Y       A     2
   100   G  3188 RESIDUE           4 Y       G     2
   101   A  3222 RESIDUE           4 Y       A     2
   102   G  3255 RESIDUE           4 Y       G     2
   103   A  3289 RESIDUE           4 Y       A     2
   104   A  3322 RESIDUE           4 Y       A     2
   105   G  3355 RESIDUE           4 Y       G     2
   106   A  3389 RESIDUE           4 Y       A     2
   107   U  3422 RESIDUE           4 Y       U     2
   108   U  3452 RESIDUE           4 Y       U     2
   109   C  3482 RESIDUE           4 Y       C     1
