molecule_00060
 OpenBabel11221915273D
libRbt.so/2013.1/901 2013/11/27
 36 39  0  0  0  0  0  0  0  0999 V2000
    8.4782  -23.6466    6.2304 N   0  0  0  0  0  0  0  0  0  0  0  0
    6.1228  -20.3202    6.5839 C   0  0  0  0  0  0  0  0  0  0  0  0
    6.9494  -19.9327    7.3968 O   0  0  0  0  0  0  0  0  0  0  0  0
    6.3229  -21.4996    5.6691 C   0  0  0  0  0  0  0  0  0  0  0  0
    7.5750  -25.5975    3.0372 N   0  0  0  0  0  0  0  0  0  0  0  0
    4.9216  -19.7282    6.4310 O   0  0  0  0  0  0  0  0  0  0  0  0
    7.7152  -21.5256    5.0461 C   0  0  0  0  0  0  0  0  0  0  0  0
    8.2193  -27.4995    1.0086 N   0  0  0  0  0  0  0  0  0  0  0  0
    6.9605  -29.1754    5.8915 O   0  0  0  0  0  0  0  0  0  0  0  0
    8.7857  -22.2368    5.8939 C   0  0  0  0  0  0  0  0  0  0  0  0
    7.4975  -29.6668    3.7856 N   0  0  0  0  0  0  0  0  0  0  0  0
    8.1105  -30.2406    1.6696 O   0  0  0  0  0  0  0  0  0  0  0  0
    8.5941  -24.5402    5.0478 C   0  0  0  0  0  0  0  0  0  0  0  0
    7.2800  -27.4255    4.4934 N   0  0  0  0  0  0  0  0  0  0  0  0
    7.3558  -24.6306    4.1175 C   0  0  0  0  0  0  0  0  0  0  0  0
    7.9162  -25.1543    1.7430 C   0  0  0  0  0  0  0  0  0  0  0  0
    8.2420  -26.1122    0.7593 C   0  0  0  0  0  0  0  0  0  0  0  0
    7.8923  -27.9135    2.1970 C   0  0  0  0  0  0  0  0  0  0  0  0
    7.8494  -29.3874    2.5001 C   0  0  0  0  0  0  0  0  0  0  0  0
    7.2341  -28.7607    4.7698 C   0  0  0  0  0  0  0  0  0  0  0  0
    7.5600  -26.9572    3.3151 C   0  0  0  0  0  0  0  0  0  0  0  0
    8.6093  -25.6967   -0.5272 C   0  0  0  0  0  0  0  0  0  0  0  0
    8.6606  -24.3387   -0.8815 C   0  0  0  0  0  0  0  0  0  0  0  0
    9.0856  -23.9585   -2.2721 C   0  0  0  0  0  0  0  0  0  0  0  0
    8.3192  -23.3766    0.0794 C   0  0  0  0  0  0  0  0  0  0  0  0
    8.3342  -21.8944   -0.1869 C   0  0  0  0  0  0  0  0  0  0  0  0
    7.9499  -23.8004    1.3691 C   0  0  0  0  0  0  0  0  0  0  0  0
    9.3500  -24.1687    7.3199 C   0  0  0  0  0  0  0  0  0  0  0  0
    8.9535  -25.5523    7.7744 C   0  0  0  0  0  0  0  0  0  0  0  0
    7.7802  -25.7446    8.5144 C   0  0  0  0  0  0  0  0  0  0  0  0
    7.5589  -26.9550    9.1668 C   0  0  0  0  0  0  0  0  0  0  0  0
    8.4839  -27.9907    9.0480 C   0  0  0  0  0  0  0  0  0  0  0  0
    9.6008  -27.8418    8.2294 C   0  0  0  0  0  0  0  0  0  0  0  0
    9.8326  -26.6282    7.5870 C   0  0  0  0  0  0  0  0  0  0  0  0
    4.8939  -18.8380    6.8379 H   0  0  0  0  0  0  0  0  0  0  0  0
    7.4485  -30.6351    4.0561 H   0  0  0  0  0  0  0  0  0  0  0  0
  1 10  1  0  0  0  0
  1 13  1  0  0  0  0
  1 28  1  0  0  0  0
  2  4  1  0  0  0  0
  2  3  2  0  0  0  0
  2  6  1  0  0  0  0
  4  7  1  0  0  0  0
  5 15  1  0  0  0  0
  5 16  1  0  0  0  0
  5 21  1  0  0  0  0
  6 35  1  0  0  0  0
  7 10  1  0  0  0  0
  8 17  1  0  0  0  0
  9 20  2  0  0  0  0
 11 19  1  0  0  0  0
 11 20  1  0  0  0  0
 11 36  1  0  0  0  0
 12 19  2  0  0  0  0
 13 15  1  0  0  0  0
 14 20  1  0  0  0  0
 14 21  2  0  0  0  0
 16 17  2  0  0  0  0
 16 27  1  0  0  0  0
 17 22  1  0  0  0  0
 18  8  2  0  0  0  0
 18 19  1  0  0  0  0
 18 21  1  0  0  0  0
 22 23  2  0  0  0  0
 23 24  1  0  0  0  0
 23 25  1  0  0  0  0
 25 26  1  0  0  0  0
 25 27  2  0  0  0  0
 28 29  1  0  0  0  0
 29 30  2  0  0  0  0
 29 34  1  0  0  0  0
 30 31  1  0  0  0  0
 31 32  2  0  0  0  0
 32 33  1  0  0  0  0
 33 34  2  0  0  0  0
M  END
>  <CHROM.0>
-49.80170028,-68.94954904,73.50862056,-165.39298652,-106.78364418,58.38014292
-167.34585465,66.06776383,-59.72417817,-62.37543718,-53.99080414,-178.06929072
68.29971624,-52.78903439,144.38809636,62.55064272,-74.36825089,-110.88118097
-59.81779337,-55.18145548

>  <CHROM.1>
71.72285143,-84.19828503,173.91430848,-43.35971806,16.29856023,87.25030939
-101.21670472,57.63348072,-176.84821963,-71.56894832,7.91294663,-25.23079026
4.22861652,2.42904794,-1.44650558,1.96606194

>  <Name>


>  <RI>
2.13258e+07

>  <Rbt.Current_Directory>
/home/fstefaniak/gitlab/AnnapuRNA-publication/case_studies/6DN2

>  <Rbt.Executable>
rbdock ($Id: //depot/dev/client3/rdock/2013.1/src/exe/rbdock.cxx#4 $)

>  <Rbt.Library>
libRbt.so (2013.1, Build901 2013/11/27)

>  <Rbt.Parameter_File>
/home/fstefaniak/progs/rDock//data/scripts/dock_solv.prm

>  <Rbt.Receptor>
system.prm

>  <SCORE>
-99.4238

>  <SCORE.INTER>
-66.7099

>  <SCORE.INTER.CONST>
1

>  <SCORE.INTER.POLAR>
-5.45656

>  <SCORE.INTER.ROT>
9

>  <SCORE.INTER.SOLV>
20.4177

>  <SCORE.INTER.VDW>
-42.6906

>  <SCORE.INTER.norm>
-1.96206

>  <SCORE.INTRA>
0.255804

>  <SCORE.INTRA.DIHEDRAL>
4.77801

>  <SCORE.INTRA.DIHEDRAL.0>
6.40188

>  <SCORE.INTRA.POLAR>
0

>  <SCORE.INTRA.POLAR.0>
0

>  <SCORE.INTRA.REPUL>
0

>  <SCORE.INTRA.REPUL.0>
0

>  <SCORE.INTRA.SOLV>
-0.351903

>  <SCORE.INTRA.SOLV.lig_0>
-26.6032

>  <SCORE.INTRA.VDW>
-1.95725

>  <SCORE.INTRA.VDW.0>
-0.660127

>  <SCORE.INTRA.norm>
0.00752365

>  <SCORE.RESTR>
0

>  <SCORE.RESTR.CAVITY>
0

>  <SCORE.RESTR.norm>
0

>  <SCORE.SYSTEM>
-32.9697

>  <SCORE.SYSTEM.CONST>
0

>  <SCORE.SYSTEM.DIHEDRAL>
25.5414

>  <SCORE.SYSTEM.POLAR>
-6.8525

>  <SCORE.SYSTEM.SOLV>
-0.544556

>  <SCORE.SYSTEM.VDW>
-7.47044

>  <SCORE.SYSTEM.norm>
-0.969698

>  <SCORE.heavy>
34

>  <SCORE.norm>
-2.92423

>  <Pose_Number>
60

>  <AnnapuRNA Score>
-398.637552848

$$$$
