ligand.pdb
 OpenBabel10011813283D

 34 37  0  0  1  0  0  0  0  0999 V2000
    8.5920  -23.0880    5.6930 N   0  0  0  0  0  0  0  0  0  0  0  0
    7.9710  -18.6180    6.8600 C   0  0  0  0  0  0  0  0  0  0  0  0
    7.2550  -18.7230    7.8400 O   0  0  0  0  0  0  0  0  0  0  0  0
    7.8330  -19.4940    5.6470 C   0  0  0  0  0  0  0  0  0  0  0  0
    7.3040  -24.9560    3.2120 N   0  0  0  0  0  0  0  0  0  0  0  0
    8.9230  -17.7120    6.7470 O   0  0  0  0  0  0  0  0  0  0  0  0
    8.9290  -20.5490    5.4690 C   0  0  0  0  0  0  0  0  0  0  0  0
    8.3170  -26.9540    1.4380 N   0  0  0  0  0  0  0  0  0  0  0  0
    6.2070  -28.2230    6.3220 O   0  0  0  0  0  0  0  0  0  0  0  0
    8.7710  -21.7860    6.3700 C   0  0  0  0  0  0  0  0  0  0  0  0
    7.2460  -28.9380    4.4170 N   0  0  0  0  0  0  0  0  0  0  0  0
    8.3120  -29.5330    2.4740 O   0  0  0  0  0  0  0  0  0  0  0  0
    7.8560  -22.8970    4.4420 C   0  0  0  0  0  0  0  0  0  0  0  0
    6.8390  -26.6130    4.8120 N   0  0  0  0  0  0  0  0  0  0  0  0
    6.8050  -23.9320    4.1390 C   0  0  0  0  0  0  0  0  0  0  0  0
    7.7530  -24.5970    1.9190 C   0  0  1  0  0  0  0  0  0  0  0  0
    8.2490  -25.6280    1.0820 C   0  0  0  0  0  0  0  0  0  0  0  0
    7.8550  -27.2510    2.7000 C   0  0  2  0  0  0  0  0  0  0  0  0
    7.7890  -28.5780    3.1970 C   0  0  0  0  0  0  0  0  0  0  0  0
    6.8050  -27.9040    5.1350 C   0  0  0  0  0  0  0  0  0  0  0  0
    7.3450  -26.2980    3.6120 C   0  0  0  0  0  0  0  0  0  0  0  0
    8.6640  -25.3070   -0.2280 C   0  0  0  0  0  0  0  0  0  0  0  0
    8.5670  -24.0040   -0.7130 C   0  0  0  0  0  0  0  0  0  0  0  0
    8.8540  -23.7360   -2.1670 C   0  0  0  0  0  0  0  0  0  0  0  0
    8.0940  -22.9770    0.1400 C   0  0  0  0  0  0  0  0  0  0  0  0
    8.0250  -21.5440   -0.3250 C   0  0  0  0  0  0  0  0  0  0  0  0
    7.6890  -23.2890    1.4360 C   0  0  0  0  0  0  0  0  0  0  0  0
    9.8890  -23.7490    5.4570 C   0  0  0  0  0  0  0  0  0  0  0  0
    9.9100  -25.2260    5.7750 C   0  0  0  0  0  0  0  0  0  0  0  0
   10.3070  -26.1490    4.8150 C   0  0  0  0  0  0  0  0  0  0  0  0
   10.3580  -27.5050    5.1110 C   0  0  0  0  0  0  0  0  0  0  0  0
   10.0210  -27.9540    6.3730 C   0  0  0  0  0  0  0  0  0  0  0  0
    9.6320  -27.0460    7.3390 C   0  0  0  0  0  0  0  0  0  0  0  0
    9.5740  -25.6910    7.0420 C   0  0  0  0  0  0  0  0  0  0  0  0
  1 10  1  0  0  0  0
  1 13  1  0  0  0  0
  1 28  1  0  0  0  0
  2  4  1  0  0  0  0
  2  3  2  0  0  0  0
  2  6  1  0  0  0  0
  4  7  1  0  0  0  0
  5 15  1  0  0  0  0
  5 16  1  0  0  0  0
  5 21  1  0  0  0  0
  7 10  1  0  0  0  0
  8 17  2  0  0  0  0
  9 20  2  0  0  0  0
 11 19  1  0  0  0  0
 11 20  2  0  0  0  0
 12 19  2  0  0  0  0
 13 15  1  0  0  0  0
 14 20  1  0  0  0  0
 14 21  2  0  0  0  0
 16 17  1  0  0  0  0
 16 27  1  6  0  0  0
 17 22  1  0  0  0  0
 18  8  1  6  0  0  0
 18 19  1  0  0  0  0
 18 21  1  0  0  0  0
 22 23  2  0  0  0  0
 23 24  1  0  0  0  0
 23 25  1  0  0  0  0
 25 26  1  0  0  0  0
 25 27  2  0  0  0  0
 28 29  1  0  0  0  0
 29 30  2  0  0  0  0
 29 34  1  0  0  0  0
 30 31  1  0  0  0  0
 31 32  2  0  0  0  0
 32 33  1  0  0  0  0
 33 34  2  0  0  0  0
M  END
$$$$
