2BEE_JS4_A_50
 OpenBabel10091713573D
Coordinates from PDB:2BEE:A:50 Model:1 without hydrogens
 49 52  0  0  0  0  0  0  0  0999 V2000
   26.9990   25.3060    7.5010 C   0  0  2  0  0  0  0  0  0  0  0  0
   26.0210   26.2700    7.8640 O   0  0  0  0  0  0  0  0  0  0  0  0
   26.8220   23.9590    8.3020 C   0  0  2  0  0  0  0  0  0  0  0  0
   25.4510   23.4700    8.1540 N   0  0  0  0  0  0  0  0  0  0  0  0
   27.2170   24.1980    9.8340 C   0  0  1  0  0  0  0  0  0  0  0  0
   27.0680   22.9740   10.5500 O   0  0  0  0  0  0  0  0  0  0  0  0
   28.6770   24.7080    9.8980 C   0  0  2  0  0  0  0  0  0  0  0  0
   29.0910   24.9570   11.2960 O   0  0  0  0  0  0  0  0  0  0  0  0
   28.8360   26.0420    9.0990 C   0  0  2  0  0  0  0  0  0  0  0  0
   28.4130   25.7290    7.7500 O   0  0  0  0  0  0  0  0  0  0  0  0
   30.2540   26.4360    9.1970 C   0  0  0  0  0  0  0  0  0  0  0  0
   30.4690   27.5870    8.5530 O   0  0  0  0  0  0  0  0  0  0  0  0
   23.9950   29.6740    5.9170 C   0  0  2  0  0  0  0  0  0  0  0  0
   23.7830   30.8440    5.0180 N   0  0  0  0  0  0  0  0  0  0  0  0
   25.2870   29.9280    6.8240 C   0  0  0  0  0  0  0  0  0  0  0  0
   25.5660   28.6550    7.8220 C   0  0  2  0  0  0  0  0  0  0  0  0
   26.7170   28.8660    8.6400 N   0  0  0  0  0  0  0  0  0  0  0  0
   25.7670   27.3470    6.9710 C   0  0  2  0  0  0  0  0  0  0  0  0
   24.4730   27.1440    6.0910 C   0  0  2  0  0  0  0  0  0  0  0  0
   24.7490   25.9510    5.3880 O   0  0  0  0  0  0  0  0  0  0  0  0
   24.2530   28.3780    5.1150 C   0  0  1  0  0  0  0  0  0  0  0  0
   23.1050   28.1890    4.3500 O   0  0  0  0  0  0  0  0  0  0  0  0
   23.9870   25.1160    4.6550 C   0  0  1  0  0  0  0  0  0  0  0  0
   23.3160   24.6800    3.3820 C   0  0  2  0  0  0  0  0  0  0  0  0
   21.8600   24.5240    3.5360 O   0  0  0  0  0  0  0  0  0  0  0  0
   24.1960   23.4980    3.1200 C   0  0  1  0  0  0  0  0  0  0  0  0
   24.5380   22.9520    4.5920 C   0  0  2  0  0  0  0  0  0  0  0  0
   24.6650   24.0860    5.3010 O   0  0  0  0  0  0  0  0  0  0  0  0
   25.8770   22.1670    4.7910 C   0  0  0  0  0  0  0  0  0  0  0  0
   24.6820   22.7280    2.0950 O   0  0  0  0  0  0  0  0  0  0  0  0
   26.9900   23.0720    4.5670 O   0  0  0  0  0  0  0  0  0  0  0  0
   21.1130   23.2550    3.4670 C   0  0  0  0  0  0  0  0  0  0  0  0
   19.7640   23.4720    4.1550 C   0  0  0  0  0  0  0  0  0  0  0  0
   19.3080   22.1900    4.7460 N   0  0  0  0  0  0  0  0  0  0  0  0
   17.9540   22.2180    5.4760 C   0  0  0  0  0  0  0  0  0  0  0  0
   17.5880   20.7670    6.0470 C   0  0  0  0  0  0  0  0  0  0  0  0
   16.2420   20.5320    6.4310 C   0  0  0  0  0  0  0  0  0  0  0  0
   15.8570   19.2880    6.9360 N   0  0  0  0  0  0  0  0  0  0  0  0
   25.7870   22.9650    1.2270 C   0  0  2  0  0  0  0  0  0  0  0  0
   25.1820   22.8460   -0.2660 C   0  0  2  0  0  0  0  0  0  0  0  0
   24.5740   21.4870   -0.4190 N   0  0  0  0  0  0  0  0  0  0  0  0
   26.3540   23.0540   -1.2760 C   0  0  1  0  0  0  0  0  0  0  0  0
   26.8650   24.4120   -1.0490 O   0  0  0  0  0  0  0  0  0  0  0  0
   27.5050   21.9260   -1.0140 C   0  0  2  0  0  0  0  0  0  0  0  0
   26.9900   20.5590   -1.2340 O   0  0  0  0  0  0  0  0  0  0  0  0
   28.0370   22.0360    0.4790 C   0  0  1  0  0  0  0  0  0  0  0  0
   26.8420   21.8750    1.3950 O   0  0  0  0  0  0  0  0  0  0  0  0
   29.1060   20.9130    0.6360 C   0  0  0  0  0  0  0  0  0  0  0  0
   29.6710   20.8940    1.9550 N   0  0  0  0  0  0  0  0  0  0  0  0
  1  2  1  1  0  0  0
  1  3  1  0  0  0  0
  1 10  1  0  0  0  0
  3  4  1  1  0  0  0
  3  5  1  0  0  0  0
  5  6  1  1  0  0  0
  5  7  1  0  0  0  0
  7  8  1  1  0  0  0
  7  9  1  0  0  0  0
  9 10  1  0  0  0  0
  9 11  1  6  0  0  0
 11 12  1  0  0  0  0
 13 14  1  6  0  0  0
 13 15  1  0  0  0  0
 13 21  1  0  0  0  0
 15 16  1  0  0  0  0
 16 17  1  6  0  0  0
 16 18  1  0  0  0  0
 18  2  1  1  0  0  0
 18 19  1  0  0  0  0
 19 20  1  6  0  0  0
 19 21  1  0  0  0  0
 21 22  1  6  0  0  0
 23 20  1  6  0  0  0
 23 24  1  0  0  0  0
 23 28  1  0  0  0  0
 24 25  1  1  0  0  0
 24 26  1  0  0  0  0
 25 32  1  0  0  0  0
 26 27  1  0  0  0  0
 26 30  1  6  0  0  0
 27 28  1  0  0  0  0
 27 29  1  6  0  0  0
 29 31  1  0  0  0  0
 32 33  1  0  0  0  0
 33 34  1  0  0  0  0
 34 35  1  0  0  0  0
 35 36  1  0  0  0  0
 36 37  1  0  0  0  0
 37 38  1  0  0  0  0
 39 30  1  1  0  0  0
 39 40  1  0  0  0  0
 39 47  1  0  0  0  0
 40 41  1  1  0  0  0
 40 42  1  0  0  0  0
 42 43  1  1  0  0  0
 42 44  1  0  0  0  0
 44 45  1  1  0  0  0
 44 46  1  0  0  0  0
 46 47  1  0  0  0  0
 46 48  1  1  0  0  0
 48 49  1  0  0  0  0
A    1
C11
A    2
O11
A    3
C21
A    4
N21
A    5
C31
A    6
O31
A    7
C41
A    8
O41
A    9
C51
A   10
O51
A   11
C61
A   12
O61
A   13
C12
A   14
N12
A   15
C22
A   16
C32
A   17
N32
A   18
C42
A   19
C52
A   20
O52
A   21
C62
A   22
O62
A   23
C13
A   24
C23
A   25
O23
A   26
C33
A   27
C43
A   28
O43
A   29
C53
A   30
O33
A   31
O53
A   32
C63
A   33
C73
A   34
N73
A   35
C83
A   36
C15
A   37
C25
A   38
N25
A   39
C14
A   40
C24
A   41
N24
A   42
C34
A   43
O34
A   44
C44
A   45
O44
A   46
C54
A   47
O54
A   48
C64
A   49
N64
M  END
>  <InstanceId>
2BEE_JS4_A_50

>  <ChemCompId>
JS4

>  <PdbId>
2BEE

>  <ChainId>
A

>  <ResidueNumber>
50

>  <InsertionCode>


>  <Model>
1

>  <AltIds>


>  <MissingHeavyAtoms>
0

>  <ObservedFormula>
C28 N7 O14

>  <Name>
(2S,3S,4R,5R,6R)-5-AMINO-2-(AMINOMETHYL)-6-((2R,3R,4R,5S)-4-(2-(3-AMINOPROPYLAMINO)ETHOXY)-5-((1R,2R,3S,5R,6S)-3,5-DIAMINO-2-((2S,3R,4R,5S,6R)-3-AMINO-4,5-DIHYDROXY-6-(HYDROXYMETHYL)-TETRAHYDRO-2H-PYRAN-2-YLOXY)-6-HYDROXYCYCLOHEXYLOXY)-2-(HYDROXYMETHYL)-TETRAHYDROFURAN-3-YLOXY)-TETRAHYDRO-2H-PYRAN-3,4-DIOL

>  <SystematicName>
(2R,3S,4R,5R,6S)-5-amino-6-[(1R,2R,3S,4R,6S)-4,6-diamino-2-[(2S,3R,5R)-4-[(2R,3R,4R,5S,6S)-3-amino-6-(aminomethyl)-4,5-dihydroxy-oxan-2-yl]oxy-3-[2-(3-aminopropylamino)ethoxy]-5-(hydroxymethyl)oxolan-2-yl]oxy-3-hydroxy-cyclohexyl]oxy-2-(hydroxymethyl)oxane-3,4-diol

>  <Synonyms>
2"-O-[N-(3-(AMINOPROPYL)2-AMINOETHYL]PAROMOMYCIN; O-2-AMINO-2-DEOXY-ALPHA-D-GLUCOPYRANOSYL-(1,4)-O-[O-2,6-DIAMINO-2,6-DIDEOXY-BETA-L-IDOPYRANOSYL-(1,3)-BETA-D-2-O-(2-(1,3-DIAMINOPROPYL)-ETHYL)-RIBOFURANOSYL-(1,5)-2-DEOXY-D-STREPTAMINE

>  <Type>
NON-POLYMER

>  <Formula>
C28 H57 N7 O14

>  <MolecularWeight>
715.791

>  <ModifiedDate>
2011-06-04

>  <Parent>


>  <OneLetterCode>


>  <SubcomponentList>


>  <AmbiguousFlag>
N

>  <InChI>
InChI=1S/C28H57N7O14/c29-2-1-3-35-4-5-43-25-23(48-26-15(33)20(41)18(39)12(7-30)44-26)14(9-37)46-28(25)49-24-17(38)10(31)6-11(32)22(24)47-27-16(34)21(42)19(40)13(8-36)45-27/h10-28,35-42H,1-9,29-34H2/t10-,11+,12+,13-,14-,15-,16-,17+,18-,19-,20-,21-,22-,23-,24-,25-,26-,27-,28+/m1/s1

>  <InChIKey>
FJVLHNJZMYGVLT-XXJRHLBLSA-N

>  <SMILES>
C1[C@H]([C@@H]([C@H]([C@@H]([C@H]1N)O[C@@H]2[C@@H]([C@H]([C@@H]([C@H](O2)CO)O)O)N)O[C@H]3[C@@H](C([C@H](O3)CO)O[C@@H]4[C@@H]([C@H]([C@@H]([C@@H](O4)CN)O)O)N)OCCNCCCN)O)N

$$$$
