2BEE_JS4_A_50
 OpenBabel10091713573D
Coordinates from PDB:2BEE:A:50 Model:1 without hydrogens
106109  0  0  1  0  0  0  0  0999 V2000
   26.9990   25.3060    7.5010 C   0  0  2  0  0  0  0  0  0  0  0  0
   26.0210   26.2700    7.8640 O   0  0  0  0  0  0  0  0  0  0  0  0
   26.8220   23.9590    8.3020 C   0  0  2  0  0  0  0  0  0  0  0  0
   25.4510   23.4700    8.1540 N   0  0  0  0  0  0  0  0  0  0  0  0
   27.2170   24.1980    9.8340 C   0  0  1  0  0  0  0  0  0  0  0  0
   27.0680   22.9740   10.5500 O   0  0  0  0  0  0  0  0  0  0  0  0
   28.6770   24.7080    9.8980 C   0  0  2  0  0  0  0  0  0  0  0  0
   29.0910   24.9570   11.2960 O   0  0  0  0  0  0  0  0  0  0  0  0
   28.8360   26.0420    9.0990 C   0  0  2  0  0  0  0  0  0  0  0  0
   28.4130   25.7290    7.7500 O   0  0  0  0  0  0  0  0  0  0  0  0
   30.2540   26.4360    9.1970 C   0  0  0  0  0  0  0  0  0  0  0  0
   30.4690   27.5870    8.5530 O   0  0  0  0  0  0  0  0  0  0  0  0
   23.9950   29.6740    5.9170 C   0  0  2  0  0  0  0  0  0  0  0  0
   23.7830   30.8440    5.0180 N   0  0  0  0  0  0  0  0  0  0  0  0
   25.2870   29.9280    6.8240 C   0  0  0  0  0  0  0  0  0  0  0  0
   25.5660   28.6550    7.8220 C   0  0  2  0  0  0  0  0  0  0  0  0
   26.7170   28.8660    8.6400 N   0  0  0  0  0  0  0  0  0  0  0  0
   25.7670   27.3470    6.9710 C   0  0  2  0  0  0  0  0  0  0  0  0
   24.4730   27.1440    6.0910 C   0  0  2  0  0  0  0  0  0  0  0  0
   24.7490   25.9510    5.3880 O   0  0  0  0  0  0  0  0  0  0  0  0
   24.2530   28.3780    5.1150 C   0  0  1  0  0  0  0  0  0  0  0  0
   23.1050   28.1890    4.3500 O   0  0  0  0  0  0  0  0  0  0  0  0
   23.9870   25.1160    4.6550 C   0  0  1  0  0  0  0  0  0  0  0  0
   23.3160   24.6800    3.3820 C   0  0  2  0  0  0  0  0  0  0  0  0
   21.8600   24.5240    3.5360 O   0  0  0  0  0  0  0  0  0  0  0  0
   24.1960   23.4980    3.1200 C   0  0  1  0  0  0  0  0  0  0  0  0
   24.5380   22.9520    4.5920 C   0  0  2  0  0  0  0  0  0  0  0  0
   24.6650   24.0860    5.3010 O   0  0  0  0  0  0  0  0  0  0  0  0
   25.8770   22.1670    4.7910 C   0  0  0  0  0  0  0  0  0  0  0  0
   24.6820   22.7280    2.0950 O   0  0  0  0  0  0  0  0  0  0  0  0
   26.9900   23.0720    4.5670 O   0  0  0  0  0  0  0  0  0  0  0  0
   21.1130   23.2550    3.4670 C   0  0  0  0  0  0  0  0  0  0  0  0
   19.7640   23.4720    4.1550 C   0  0  0  0  0  0  0  0  0  0  0  0
   19.3080   22.1900    4.7460 N   0  0  0  0  0  0  0  0  0  0  0  0
   17.9540   22.2180    5.4760 C   0  0  0  0  0  0  0  0  0  0  0  0
   17.5880   20.7670    6.0470 C   0  0  0  0  0  0  0  0  0  0  0  0
   16.2420   20.5320    6.4310 C   0  0  0  0  0  0  0  0  0  0  0  0
   15.8570   19.2880    6.9360 N   0  0  0  0  0  0  0  0  0  0  0  0
   25.7870   22.9650    1.2270 C   0  0  2  0  0  0  0  0  0  0  0  0
   25.1820   22.8460   -0.2660 C   0  0  2  0  0  0  0  0  0  0  0  0
   24.5740   21.4870   -0.4190 N   0  0  0  0  0  0  0  0  0  0  0  0
   26.3540   23.0540   -1.2760 C   0  0  1  0  0  0  0  0  0  0  0  0
   26.8650   24.4120   -1.0490 O   0  0  0  0  0  0  0  0  0  0  0  0
   27.5050   21.9260   -1.0140 C   0  0  2  0  0  0  0  0  0  0  0  0
   26.9900   20.5590   -1.2340 O   0  0  0  0  0  0  0  0  0  0  0  0
   28.0370   22.0360    0.4790 C   0  0  1  0  0  0  0  0  0  0  0  0
   26.8420   21.8750    1.3950 O   0  0  0  0  0  0  0  0  0  0  0  0
   29.1060   20.9130    0.6360 C   0  0  0  0  0  0  0  0  0  0  0  0
   29.6710   20.8940    1.9550 N   0  0  0  0  0  0  0  0  0  0  0  0
   26.8364   25.1849    6.4504 H   0  0  0  0  0  0  0  0  0  0  0  0
   27.4727   23.2056    7.9097 H   0  0  0  0  0  0  0  0  0  0  0  0
   24.8006   24.1657    8.5192 H   0  0  0  0  0  0  0  0  0  0  0  0
   25.3431   22.5984    8.6727 H   0  0  0  0  0  0  0  0  0  0  0  0
   26.5778   24.9305   10.2810 H   0  0  0  0  0  0  0  0  0  0  0  0
   27.6417   22.2977   10.1571 H   0  0  0  0  0  0  0  0  0  0  0  0
   29.2939   23.9476    9.4667 H   0  0  0  0  0  0  0  0  0  0  0  0
   28.5287   25.6468   11.6818 H   0  0  0  0  0  0  0  0  0  0  0  0
   28.2547   26.8639    9.4616 H   0  0  0  0  0  0  0  0  0  0  0  0
   30.8622   25.6708    8.7617 H   0  0  0  0  0  0  0  0  0  0  0  0
   30.5047   26.5666   10.2290 H   0  0  0  0  0  0  0  0  0  0  0  0
   30.2447   27.4797    7.6154 H   0  0  0  0  0  0  0  0  0  0  0  0
   23.1093   29.5620    6.5069 H   0  0  0  0  0  0  0  0  0  0  0  0
   24.6108   30.9816    4.4381 H   0  0  0  0  0  0  0  0  0  0  0  0
   23.6189   31.6793    5.5800 H   0  0  0  0  0  0  0  0  0  0  0  0
   25.1329   30.8075    7.4137 H   0  0  0  0  0  0  0  0  0  0  0  0
   26.1347   30.0499    6.1825 H   0  0  0  0  0  0  0  0  0  0  0  0
   24.7155   28.5526    8.4632 H   0  0  0  0  0  0  0  0  0  0  0  0
   27.5413   28.9665    8.0477 H   0  0  0  0  0  0  0  0  0  0  0  0
   26.8417   28.0686    9.2637 H   0  0  0  0  0  0  0  0  0  0  0  0
   26.6034   27.4065    6.3063 H   0  0  0  0  0  0  0  0  0  0  0  0
   23.5702   27.0817    6.6619 H   0  0  0  0  0  0  0  0  0  0  0  0
   25.1337   28.4545    4.5122 H   0  0  0  0  0  0  0  0  0  0  0  0
   22.3337   28.1253    4.9347 H   0  0  0  0  0  0  0  0  0  0  0  0
   23.1215   25.7014    4.4245 H   0  0  0  0  0  0  0  0  0  0  0  0
   23.2668   25.3376    2.5394 H   0  0  0  0  0  0  0  0  0  0  0  0
   24.2570   23.8283    2.1041 H   0  0  0  0  0  0  0  0  0  0  0  0
   23.7779   22.2487    4.8612 H   0  0  0  0  0  0  0  0  0  0  0  0
   25.9260   21.3576    4.0929 H   0  0  0  0  0  0  0  0  0  0  0  0
   25.9231   21.7746    5.7854 H   0  0  0  0  0  0  0  0  0  0  0  0
   26.9434   23.4246    3.6646 H   0  0  0  0  0  0  0  0  0  0  0  0
   21.6583   22.4833    3.9690 H   0  0  0  0  0  0  0  0  0  0  0  0
   20.9712   22.9583    2.4488 H   0  0  0  0  0  0  0  0  0  0  0  0
   19.0463   23.8109    3.4374 H   0  0  0  0  0  0  0  0  0  0  0  0
   19.8667   24.2074    4.9254 H   0  0  0  0  0  0  0  0  0  0  0  0
   20.0156   21.8876    5.4155 H   0  0  0  0  0  0  0  0  0  0  0  0
   17.1924   22.5284    4.7915 H   0  0  0  0  0  0  0  0  0  0  0  0
   18.0191   22.9034    6.2951 H   0  0  0  0  0  0  0  0  0  0  0  0
   18.2006   20.5979    6.9078 H   0  0  0  0  0  0  0  0  0  0  0  0
   17.7563   20.1017    5.2261 H   0  0  0  0  0  0  0  0  0  0  0  0
   15.6401   20.7111    5.5647 H   0  0  0  0  0  0  0  0  0  0  0  0
   16.1134   21.1833    7.2702 H   0  0  0  0  0  0  0  0  0  0  0  0
   15.9433   18.5826    6.2044 H   0  0  0  0  0  0  0  0  0  0  0  0
   14.8880   19.3341    7.2513 H   0  0  0  0  0  0  0  0  0  0  0  0
   26.2422   23.9117    1.4305 H   0  0  0  0  0  0  0  0  0  0  0  0
   24.4273   23.5819   -0.4497 H   0  0  0  0  0  0  0  0  0  0  0  0
   25.2841   20.7754   -0.2462 H   0  0  0  0  0  0  0  0  0  0  0  0
   24.2107   21.3818   -1.3663 H   0  0  0  0  0  0  0  0  0  0  0  0
   26.0350   22.9478   -2.2918 H   0  0  0  0  0  0  0  0  0  0  0  0
   27.1518   24.4995   -0.1265 H   0  0  0  0  0  0  0  0  0  0  0  0
   28.2977   22.1083   -1.7092 H   0  0  0  0  0  0  0  0  0  0  0  0
   26.2697   20.3804   -0.6093 H   0  0  0  0  0  0  0  0  0  0  0  0
   28.4945   22.9719    0.7234 H   0  0  0  0  0  0  0  0  0  0  0  0
   29.8893   21.0792   -0.0737 H   0  0  0  0  0  0  0  0  0  0  0  0
   28.6261   19.9717    0.4668 H   0  0  0  0  0  0  0  0  0  0  0  0
   30.1350   21.7835    2.1390 H   0  0  0  0  0  0  0  0  0  0  0  0
   30.3500   20.1359    2.0231 H   0  0  0  0  0  0  0  0  0  0  0  0
  1  2  1  0  0  0  0
  1  3  1  0  0  0  0
  1 10  1  0  0  0  0
  1 50  1  6  0  0  0
  2 18  1  0  0  0  0
  3  4  1  0  0  0  0
  3  5  1  0  0  0  0
  3 51  1  6  0  0  0
  4 52  1  0  0  0  0
  4 53  1  0  0  0  0
  5  6  1  0  0  0  0
  5  7  1  0  0  0  0
  5 54  1  1  0  0  0
  6 55  1  0  0  0  0
  7  8  1  0  0  0  0
  7  9  1  0  0  0  0
  7 56  1  6  0  0  0
  8 57  1  0  0  0  0
  9 10  1  0  0  0  0
  9 11  1  0  0  0  0
  9 58  1  1  0  0  0
 11 12  1  0  0  0  0
 11 59  1  0  0  0  0
 11 60  1  0  0  0  0
 12 61  1  0  0  0  0
 13 14  1  0  0  0  0
 13 15  1  0  0  0  0
 13 21  1  0  0  0  0
 13 62  1  1  0  0  0
 14 63  1  0  0  0  0
 14 64  1  0  0  0  0
 15 16  1  0  0  0  0
 15 65  1  0  0  0  0
 15 66  1  0  0  0  0
 16 17  1  0  0  0  0
 16 18  1  0  0  0  0
 16 67  1  1  0  0  0
 17 68  1  0  0  0  0
 17 69  1  0  0  0  0
 18 19  1  0  0  0  0
 18 70  1  6  0  0  0
 19 20  1  0  0  0  0
 19 21  1  0  0  0  0
 19 71  1  1  0  0  0
 20 23  1  0  0  0  0
 21 22  1  0  0  0  0
 21 72  1  6  0  0  0
 22 73  1  0  0  0  0
 23 24  1  0  0  0  0
 23 28  1  0  0  0  0
 23 74  1  1  0  0  0
 24 25  1  0  0  0  0
 24 26  1  0  0  0  0
 24 75  1  6  0  0  0
 25 32  1  0  0  0  0
 26 27  1  0  0  0  0
 26 30  1  0  0  0  0
 26 76  1  6  0  0  0
 27 28  1  0  0  0  0
 27 29  1  0  0  0  0
 27 77  1  1  0  0  0
 29 31  1  0  0  0  0
 29 78  1  0  0  0  0
 29 79  1  0  0  0  0
 30 39  1  0  0  0  0
 31 80  1  0  0  0  0
 32 33  1  0  0  0  0
 32 81  1  0  0  0  0
 32 82  1  0  0  0  0
 33 34  1  0  0  0  0
 33 83  1  0  0  0  0
 33 84  1  0  0  0  0
 34 35  1  0  0  0  0
 34 85  1  0  0  0  0
 35 36  1  0  0  0  0
 35 86  1  0  0  0  0
 35 87  1  0  0  0  0
 36 37  1  0  0  0  0
 36 88  1  0  0  0  0
 36 89  1  0  0  0  0
 37 38  1  0  0  0  0
 37 90  1  0  0  0  0
 37 91  1  0  0  0  0
 38 92  1  0  0  0  0
 38 93  1  0  0  0  0
 39 40  1  0  0  0  0
 39 47  1  0  0  0  0
 39 94  1  1  0  0  0
 40 41  1  0  0  0  0
 40 42  1  0  0  0  0
 40 95  1  6  0  0  0
 41 96  1  0  0  0  0
 41 97  1  0  0  0  0
 42 43  1  0  0  0  0
 42 44  1  0  0  0  0
 42 98  1  6  0  0  0
 43 99  1  0  0  0  0
 44 45  1  0  0  0  0
 44 46  1  0  0  0  0
 44100  1  6  0  0  0
 45101  1  0  0  0  0
 46 47  1  0  0  0  0
 46 48  1  0  0  0  0
 46102  1  1  0  0  0
 48 49  1  0  0  0  0
 48103  1  0  0  0  0
 48104  1  0  0  0  0
 49105  1  0  0  0  0
 49106  1  0  0  0  0
M  END
$$$$
