REMARK  15 active torsions:
REMARK  status: ('A' for Active; 'I' for Inactive)
REMARK    1  A    between atoms: C_1  and  O_2 
REMARK    2  A    between atoms: C_18  and  O_2 
REMARK    3  A    between atoms: C_9  and  C_11 
REMARK    4  A    between atoms: C_19  and  O_20 
REMARK    5  A    between atoms: C_23  and  O_20 
REMARK    6  A    between atoms: C_24  and  O_25 
REMARK    7  A    between atoms: O_25  and  C_32 
REMARK    8  A    between atoms: C_26  and  O_30 
REMARK    9  A    between atoms: C_27  and  C_29 
REMARK   10  A    between atoms: C_39  and  O_30 
REMARK   11  A    between atoms: C_32  and  C_33 
REMARK   12  A    between atoms: C_33  and  N_34 
REMARK   13  A    between atoms: N_34  and  C_35 
REMARK   14  A    between atoms: C_35  and  C_36 
REMARK   15  A    between atoms: C_46  and  C_48 
ROOT
ATOM      1  C   UNL d   1      23.987  25.116   4.655  0.00  0.00     0.266 C 
ATOM      2  C   UNL d   1      23.316  24.680   3.382  0.00  0.00     0.201 C 
ATOM      3  C   UNL d   1      24.196  23.498   3.120  0.00  0.00     0.180 C 
ATOM      4  C   UNL d   1      24.538  22.952   4.592  0.00  0.00     0.180 C 
ATOM      5  O   UNL d   1      24.665  24.086   5.301  0.00  0.00    -0.326 OA
ENDROOT
BRANCH   1   6
ATOM      6  O   UNL d   1      24.749  25.951   5.388  0.00  0.00    -0.326 OA
BRANCH   6   7
ATOM      7  C   UNL d   1      24.473  27.144   6.091  0.00  0.00     0.179 C 
ATOM      8  C   UNL d   1      25.767  27.347   6.971  0.00  0.00     0.184 C 
ATOM      9  C   UNL d   1      25.566  28.655   7.822  0.00  0.00     0.333 C 
ATOM     10  C   UNL d   1      25.287  29.928   6.824  0.00  0.00     0.084 C 
ATOM     11  N   UNL d   1      26.717  28.866   8.640  0.00  0.00     0.619 N 
ATOM     12  C   UNL d   1      23.995  29.674   5.917  0.00  0.00     0.337 C 
ATOM     13  N   UNL d   1      23.783  30.844   5.018  0.00  0.00     0.619 N 
ATOM     14  C   UNL d   1      24.253  28.378   5.115  0.00  0.00     0.218 C 
ATOM     15  O   UNL d   1      23.105  28.189   4.350  0.00  0.00    -0.218 OA
BRANCH   8  16
ATOM     16  O   UNL d   1      26.021  26.270   7.864  0.00  0.00    -0.327 OA
BRANCH  16  17
ATOM     17  C   UNL d   1      26.999  25.306   7.501  0.00  0.00     0.277 C 
ATOM     18  C   UNL d   1      26.822  23.959   8.302  0.00  0.00     0.390 C 
ATOM     19  N   UNL d   1      25.451  23.470   8.154  0.00  0.00     0.624 N 
ATOM     20  C   UNL d   1      27.217  24.198   9.834  0.00  0.00     0.227 C 
ATOM     21  O   UNL d   1      27.068  22.974  10.550  0.00  0.00    -0.218 OA
ATOM     22  C   UNL d   1      28.677  24.708   9.898  0.00  0.00     0.214 C 
ATOM     23  O   UNL d   1      29.091  24.957  11.296  0.00  0.00    -0.218 OA
ATOM     24  C   UNL d   1      28.836  26.042   9.099  0.00  0.00     0.184 C 
ATOM     25  O   UNL d   1      28.413  25.729   7.750  0.00  0.00    -0.326 OA
BRANCH  24  26
ATOM     26  C   UNL d   1      30.254  26.436   9.197  0.00  0.00     0.214 C 
ATOM     27  O   UNL d   1      30.469  27.587   8.553  0.00  0.00    -0.218 OA
ENDBRANCH  24  26
ENDBRANCH  16  17
ENDBRANCH   8  16
ENDBRANCH   6   7
ENDBRANCH   1   6
BRANCH   2  28
ATOM     28  O   UNL d   1      21.860  24.524   3.536  0.00  0.00    -0.347 OA
BRANCH  28  29
ATOM     29  C   UNL d   1      21.113  23.255   3.467  0.00  0.00     0.168 C 
BRANCH  29  30
ATOM     30  C   UNL d   1      19.764  23.472   4.155  0.00  0.00     0.152 C 
BRANCH  30  31
ATOM     31  N   UNL d   1      19.308  22.190   4.746  0.00  0.00    -0.288 NA
BRANCH  31  32
ATOM     32  C   UNL d   1      17.954  22.218   5.476  0.00  0.00     0.147 C 
BRANCH  32  33
ATOM     33  C   UNL d   1      17.588  20.767   6.047  0.00  0.00     0.015 C 
ATOM     34  C   UNL d   1      16.242  20.532   6.431  0.00  0.00     0.081 C 
ATOM     35  N   UNL d   1      15.857  19.288   6.936  0.00  0.00    -0.100 NA
ENDBRANCH  32  33
ENDBRANCH  31  32
ENDBRANCH  30  31
ENDBRANCH  29  30
ENDBRANCH  28  29
ENDBRANCH   2  28
BRANCH   3  36
ATOM     36  O   UNL d   1      24.682  22.728   2.095  0.00  0.00    -0.327 OA
BRANCH  36  37
ATOM     37  C   UNL d   1      25.787  22.965   1.227  0.00  0.00     0.277 C 
ATOM     38  C   UNL d   1      25.182  22.846  -0.266  0.00  0.00     0.390 C 
ATOM     39  N   UNL d   1      24.574  21.487  -0.419  0.00  0.00     0.624 N 
ATOM     40  C   UNL d   1      26.354  23.054  -1.276  0.00  0.00     0.227 C 
ATOM     41  O   UNL d   1      26.865  24.412  -1.049  0.00  0.00    -0.218 OA
ATOM     42  C   UNL d   1      27.505  21.926  -1.014  0.00  0.00     0.214 C 
ATOM     43  O   UNL d   1      26.990  20.559  -1.234  0.00  0.00    -0.218 OA
ATOM     44  C   UNL d   1      28.037  22.036   0.479  0.00  0.00     0.190 C 
ATOM     45  O   UNL d   1      26.842  21.875   1.395  0.00  0.00    -0.327 OA
BRANCH  44  46
ATOM     46  C   UNL d   1      29.106  20.913   0.636  0.00  0.00     0.370 C 
ATOM     47  N   UNL d   1      29.671  20.894   1.955  0.00  0.00     0.621 N 
ENDBRANCH  44  46
ENDBRANCH  36  37
ENDBRANCH   3  36
BRANCH   4  48
ATOM     48  C   UNL d   1      25.877  22.167   4.791  0.00  0.00     0.214 C 
ATOM     49  O   UNL d   1      26.990  23.072   4.567  0.00  0.00    -0.218 OA
ENDBRANCH   4  48
TORSDOF 15
