@<TRIPOS>MOLECULE
2BEE_JS4_A_50
 49 52 0 0 0
SMALL
GASTEIGER
****
Coordinates from PDB:2BEE:A:50 Model:1 without hydrogens
@<TRIPOS>ATOM
      1 C          26.9990   25.3060    7.5010 C.3     1  UNL1        0.2561
      2 O          26.0210   26.2700    7.8640 O.3     1  UNL1       -0.3278
      3 C          26.8220   23.9590    8.3020 C.3     1  UNL1        0.1807
      4 N          25.4510   23.4700    8.1540 N.3     1  UNL1       -0.1248
      5 C          27.2170   24.1980    9.8340 C.3     1  UNL1        0.2070
      6 O          27.0680   22.9740   10.5500 O.3     1  UNL1       -0.2186
      7 C          28.6770   24.7080    9.8980 C.3     1  UNL1        0.2133
      8 O          29.0910   24.9570   11.2960 O.3     1  UNL1       -0.2176
      9 C          28.8360   26.0420    9.0990 C.3     1  UNL1        0.1834
     10 O          28.4130   25.7290    7.7500 O.3     1  UNL1       -0.3264
     11 C          30.2540   26.4360    9.1970 C.3     1  UNL1        0.2142
     12 O          30.4690   27.5870    8.5530 O.3     1  UNL1       -0.2176
     13 C          23.9950   29.6740    5.9170 C.3     1  UNL1        0.1261
     14 N          23.7830   30.8440    5.0180 N.3     1  UNL1       -0.1301
     15 C          25.2870   29.9280    6.8240 C.3     1  UNL1        0.0433
     16 C          25.5660   28.6550    7.8220 C.3     1  UNL1        0.1230
     17 N          26.7170   28.8660    8.6400 N.3     1  UNL1       -0.1302
     18 C          25.7670   27.3470    6.9710 C.3     1  UNL1        0.1649
     19 C          24.4730   27.1440    6.0910 C.3     1  UNL1        0.1779
     20 O          24.7490   25.9510    5.3880 O.3     1  UNL1       -0.3259
     21 C          24.2530   28.3780    5.1150 C.3     1  UNL1        0.1989
     22 O          23.1050   28.1890    4.3500 O.3     1  UNL1       -0.2189
     23 C          23.9870   25.1160    4.6550 C.3     1  UNL1        0.2661
     24 C          23.3160   24.6800    3.3820 C.3     1  UNL1        0.2008
     25 O          21.8600   24.5240    3.5360 O.3     1  UNL1       -0.3470
     26 C          24.1960   23.4980    3.1200 C.3     1  UNL1        0.1795
     27 C          24.5380   22.9520    4.5920 C.3     1  UNL1        0.1803
     28 O          24.6650   24.0860    5.3010 O.3     1  UNL1       -0.3258
     29 C          25.8770   22.1670    4.7910 C.3     1  UNL1        0.2141
     30 O          24.6820   22.7280    2.0950 O.3     1  UNL1       -0.3266
     31 O          26.9900   23.0720    4.5670 O.3     1  UNL1       -0.2176
     32 C          21.1130   23.2550    3.4670 C.3     1  UNL1        0.1611
     33 C          19.7640   23.4720    4.1550 C.3     1  UNL1        0.1207
     34 N          19.3080   22.1900    4.7460 N.3     1  UNL1       -0.2154
     35 C          17.9540   22.2180    5.4760 C.3     1  UNL1        0.0903
     36 C          17.5880   20.7670    6.0470 C.3     1  UNL1        0.0393
     37 C          16.2420   20.5320    6.4310 C.3     1  UNL1        0.1108
     38 N          15.8570   19.2880    6.9360 N.3     1  UNL1       -0.1313
     39 C          25.7870   22.9650    1.2270 C.3     1  UNL1        0.2561
     40 C          25.1820   22.8460   -0.2660 C.3     1  UNL1        0.1807
     41 N          24.5740   21.4870   -0.4190 N.3     1  UNL1       -0.1248
     42 C          26.3540   23.0540   -1.2760 C.3     1  UNL1        0.2070
     43 O          26.8650   24.4120   -1.0490 O.3     1  UNL1       -0.2186
     44 C          27.5050   21.9260   -1.0140 C.3     1  UNL1        0.2122
     45 O          26.9900   20.5590   -1.2340 O.3     1  UNL1       -0.2177
     46 C          28.0370   22.0360    0.4790 C.3     1  UNL1        0.1696
     47 O          26.8420   21.8750    1.3950 O.3     1  UNL1       -0.3276
     48 C          29.1060   20.9130    0.6360 C.3     1  UNL1        0.1415
     49 N          29.6710   20.8940    1.9550 N.3     1  UNL1       -0.1286
@<TRIPOS>BOND
     1     1     2    1
     2     1     3    1
     3     1    10    1
     4     3     4    1
     5     3     5    1
     6     5     6    1
     7     5     7    1
     8     7     8    1
     9     7     9    1
    10     9    10    1
    11     9    11    1
    12    11    12    1
    13    13    14    1
    14    13    15    1
    15    13    21    1
    16    15    16    1
    17    16    17    1
    18    16    18    1
    19    18     2    1
    20    18    19    1
    21    19    20    1
    22    19    21    1
    23    21    22    1
    24    23    20    1
    25    23    24    1
    26    23    28    1
    27    24    25    1
    28    24    26    1
    29    25    32    1
    30    26    27    1
    31    26    30    1
    32    27    28    1
    33    27    29    1
    34    29    31    1
    35    32    33    1
    36    33    34    1
    37    34    35    1
    38    35    36    1
    39    36    37    1
    40    37    38    1
    41    39    30    1
    42    39    40    1
    43    39    47    1
    44    40    41    1
    45    40    42    1
    46    42    43    1
    47    42    44    1
    48    44    45    1
    49    44    46    1
    50    46    47    1
    51    46    48    1
    52    48    49    1
