ligands/ligand.pdb
 OpenBabel03221816513D

 70 72  0  0  1  0  0  0  0  0999 V2000
   -1.7491   -4.9420   10.6508 C   0  0  1  0  0  0  0  0  0  0  0  0
   -0.8716   -5.5888   10.7687 H   0  0  0  0  0  0  0  0  0  0  0  0
   -1.2333   -3.7053   10.1252 O   0  0  0  0  0  0  0  0  0  0  0  0
   -2.2027   -2.6556   10.0624 C   0  0  2  0  0  0  0  0  0  0  0  0
   -3.0874   -2.9713    9.5100 H   0  0  0  0  0  0  0  0  0  0  0  0
   -1.6656   -1.4959    9.4164 O   0  0  0  0  0  0  0  0  0  0  0  0
   -1.3484   -1.6438    7.9930 C   0  0  2  0  0  0  0  0  0  0  0  0
   -0.5825   -2.4265    7.9151 H   0  0  0  0  0  0  0  0  0  0  0  0
   -0.7337   -0.2780    7.5805 C   0  0  2  0  0  0  0  0  0  0  0  0
   -1.2648    0.5204    8.1162 H   0  0  0  0  0  0  0  0  0  0  0  0
   -0.8090    0.0176    6.0861 C   0  0  0  0  0  0  0  0  0  0  0  0
   -2.2512   -0.1098    5.5864 C   0  0  1  0  0  0  0  0  0  0  0  0
   -2.9234    0.4410    6.2574 H   0  0  0  0  0  0  0  0  0  0  0  0
   -2.3174    0.5716    4.2935 N   0  0  0  0  0  0  0  0  0  0  0  0
   -2.6283   -1.6130    5.6246 C   0  0  1  0  0  0  0  0  0  0  0  0
   -1.9296   -2.2260    5.0405 H   0  0  0  0  0  0  0  0  0  0  0  0
   -2.5888   -2.0552    7.1339 C   0  0  1  0  0  0  0  0  0  0  0  0
   -3.4899   -1.6598    7.6198 H   0  0  0  0  0  0  0  0  0  0  0  0
   -2.7390   -3.4927    7.1873 O   0  0  0  0  0  0  0  0  0  0  0  0
   -3.9684   -1.9071    5.1851 O   0  0  0  0  0  0  0  0  0  0  0  0
   -4.3169   -1.9183    3.7925 C   0  0  2  0  0  0  0  0  0  0  0  0
   -4.2231   -0.9140    3.3784 H   0  0  0  0  0  0  0  0  0  0  0  0
   -5.8099   -2.3609    3.7814 C   0  0  1  0  0  0  0  0  0  0  0  0
   -6.3929   -1.6828    4.4163 H   0  0  0  0  0  0  0  0  0  0  0  0
   -6.3848   -2.3865    2.3401 C   0  0  2  0  0  0  0  0  0  0  0  0
   -7.3979   -2.8091    2.3758 H   0  0  0  0  0  0  0  0  0  0  0  0
   -5.4815   -3.3167    1.4607 C   0  0  2  0  0  0  0  0  0  0  0  0
   -4.0010   -2.8863    1.6395 C   0  0  0  0  0  0  0  0  0  0  0  0
   -3.5538   -2.8463    3.0111 O   0  0  0  0  0  0  0  0  0  0  0  0
   -5.8727   -3.2564    0.0768 O   0  0  0  0  0  0  0  0  0  0  0  0
   -5.6609   -4.8057    1.8168 C   0  0  0  0  0  0  0  0  0  0  0  0
   -6.5039   -0.9615    1.8875 N   0  0  0  0  0  0  0  0  0  0  0  0
   -7.2782   -0.7842    0.6605 C   0  0  0  0  0  0  0  0  0  0  0  0
   -5.9469   -3.6581    4.3933 O   0  0  0  0  0  0  0  0  0  0  0  0
    0.6809   -0.1910    7.9878 N   0  0  0  0  0  0  0  0  0  0  0  0
   -2.6868   -2.3053   11.5113 C   0  0  2  0  0  0  0  0  0  0  0  0
   -3.4370   -1.5065   11.4608 H   0  0  0  0  0  0  0  0  0  0  0  0
   -1.6208   -1.8243   12.4234 N   0  0  0  0  0  0  0  0  0  0  0  0
   -3.3188   -3.5662   12.1130 C   0  0  0  0  0  0  0  0  0  0  0  0
   -2.3671   -4.7543   12.0427 C   0  0  0  0  0  0  0  0  0  0  0  0
   -2.6879   -5.6362    9.6364 C   0  0  0  0  0  0  0  0  0  0  0  0
   -3.1246   -6.9672   10.0558 N   0  0  0  0  0  0  0  0  0  0  0  0
   -0.1555   -0.6662    5.5260 H   0  0  0  0  0  0  0  0  0  0  0  0
   -0.4265    1.0308    5.9028 H   0  0  0  0  0  0  0  0  0  0  0  0
   -1.8644    0.0294    3.5621 H   0  0  0  0  0  0  0  0  0  0  0  0
   -3.2837    0.7350    4.0239 H   0  0  0  0  0  0  0  0  0  0  0  0
   -1.9231   -3.8871    6.8306 H   0  0  0  0  0  0  0  0  0  0  0  0
   -3.8299   -1.9048    1.1748 H   0  0  0  0  0  0  0  0  0  0  0  0
   -3.3532   -3.5834    1.0964 H   0  0  0  0  0  0  0  0  0  0  0  0
   -5.4301   -2.4945   -0.3296 H   0  0  0  0  0  0  0  0  0  0  0  0
   -5.0037   -5.1332    2.6256 H   0  0  0  0  0  0  0  0  0  0  0  0
   -5.4532   -5.4460    0.9485 H   0  0  0  0  0  0  0  0  0  0  0  0
   -6.6967   -5.0221    2.1026 H   0  0  0  0  0  0  0  0  0  0  0  0
   -7.0257   -0.4646    2.6159 H   0  0  0  0  0  0  0  0  0  0  0  0
   -6.6765   -0.9568   -0.2331 H   0  0  0  0  0  0  0  0  0  0  0  0
   -7.5978    0.2624    0.5970 H   0  0  0  0  0  0  0  0  0  0  0  0
   -8.1788   -1.4043    0.6339 H   0  0  0  0  0  0  0  0  0  0  0  0
   -5.0637   -3.8728    4.7597 H   0  0  0  0  0  0  0  0  0  0  0  0
    0.7398   -0.3418    8.9961 H   0  0  0  0  0  0  0  0  0  0  0  0
    1.0287    0.7525    7.8172 H   0  0  0  0  0  0  0  0  0  0  0  0
   -1.2561   -0.9491   12.0470 H   0  0  0  0  0  0  0  0  0  0  0  0
   -0.8340   -2.4735   12.3571 H   0  0  0  0  0  0  0  0  0  0  0  0
   -4.2386   -3.8053   11.5642 H   0  0  0  0  0  0  0  0  0  0  0  0
   -3.6229   -3.3921   13.1521 H   0  0  0  0  0  0  0  0  0  0  0  0
   -2.8697   -5.6722   12.3655 H   0  0  0  0  0  0  0  0  0  0  0  0
   -1.5562   -4.5916   12.7620 H   0  0  0  0  0  0  0  0  0  0  0  0
   -2.1655   -5.7194    8.6762 H   0  0  0  0  0  0  0  0  0  0  0  0
   -3.5792   -5.0296    9.4499 H   0  0  0  0  0  0  0  0  0  0  0  0
   -2.3186   -7.5878   10.1201 H   0  0  0  0  0  0  0  0  0  0  0  0
   -3.7279   -7.3579    9.3324 H   0  0  0  0  0  0  0  0  0  0  0  0
  1  2  1  1  0  0  0
  1  3  1  0  0  0  0
  1 40  1  0  0  0  0
  1 41  1  0  0  0  0
  3  4  1  0  0  0  0
  4  5  1  0  0  0  0
  4  6  1  0  0  0  0
  4 36  1  1  0  0  0
  7 17  1  6  0  0  0
  7  8  1  0  0  0  0
  7  6  1  0  0  0  0
  9  7  1  1  0  0  0
  9 10  1  0  0  0  0
  9 11  1  0  0  0  0
  9 35  1  0  0  0  0
 11 12  1  0  0  0  0
 11 43  1  0  0  0  0
 11 44  1  0  0  0  0
 12 15  1  6  0  0  0
 12 14  1  0  0  0  0
 12 13  1  0  0  0  0
 14 45  1  0  0  0  0
 14 46  1  0  0  0  0
 15 16  1  0  0  0  0
 15 17  1  1  0  0  0
 15 20  1  0  0  0  0
 17 19  1  0  0  0  0
 17 18  1  1  0  0  0
 19 47  1  0  0  0  0
 21 23  1  6  0  0  0
 21 29  1  0  0  0  0
 21 22  1  0  0  0  0
 21 20  1  0  0  0  0
 23 25  1  6  0  0  0
 23 34  1  0  0  0  0
 23 24  1  0  0  0  0
 25 27  1  6  0  0  0
 25 32  1  0  0  0  0
 25 26  1  0  0  0  0
 27 28  1  0  0  0  0
 27 30  1  6  0  0  0
 27 31  1  0  0  0  0
 28 29  1  0  0  0  0
 28 48  1  0  0  0  0
 28 49  1  0  0  0  0
 30 50  1  0  0  0  0
 31 51  1  0  0  0  0
 31 52  1  0  0  0  0
 31 53  1  0  0  0  0
 32 33  1  0  0  0  0
 32 54  1  0  0  0  0
 33 55  1  0  0  0  0
 33 56  1  0  0  0  0
 33 57  1  0  0  0  0
 34 58  1  0  0  0  0
 35 59  1  0  0  0  0
 35 60  1  0  0  0  0
 36 37  1  6  0  0  0
 36 38  1  0  0  0  0
 36 39  1  0  0  0  0
 38 61  1  0  0  0  0
 38 62  1  0  0  0  0
 39 40  1  0  0  0  0
 39 63  1  0  0  0  0
 39 64  1  0  0  0  0
 40 65  1  0  0  0  0
 40 66  1  0  0  0  0
 41 42  1  0  0  0  0
 41 67  1  0  0  0  0
 41 68  1  0  0  0  0
 42 69  1  0  0  0  0
 42 70  1  0  0  0  0
M  END
$$$$
