@<TRIPOS>MOLECULE
ligands/ligand.pdb
 70 72 0 0 0
SMALL
GASTEIGER

@<TRIPOS>ATOM
      1 C          -1.7491   -4.9420   10.6508 C.3     1  UNL1        0.0740
      2 H          -0.8716   -5.5888   10.7687 H       1  UNL1        0.0609
      3 O          -1.2333   -3.7053   10.1252 O.3     1  UNL1       -0.3453
      4 C          -2.2027   -2.6556   10.0624 C.3     1  UNL1        0.1750
      5 H          -3.0874   -2.9713    9.5100 H       1  UNL1        0.0926
      6 O          -1.6656   -1.4959    9.4164 O.3     1  UNL1       -0.3423
      7 C          -1.3484   -1.6438    7.9930 C.3     1  UNL1        0.1051
      8 H          -0.5825   -2.4265    7.9151 H       1  UNL1        0.0639
      9 C          -0.7337   -0.2780    7.5805 C.3     1  UNL1        0.0355
     10 H          -1.2648    0.5204    8.1162 H       1  UNL1        0.0485
     11 C          -0.8090    0.0176    6.0861 C.3     1  UNL1       -0.0175
     12 C          -2.2512   -0.1098    5.5864 C.3     1  UNL1        0.0355
     13 H          -2.9234    0.4410    6.2574 H       1  UNL1        0.0485
     14 N          -2.3174    0.5716    4.2935 N.3     1  UNL1       -0.3250
     15 C          -2.6283   -1.6130    5.6246 C.3     1  UNL1        0.1051
     16 H          -1.9296   -2.2260    5.0405 H       1  UNL1        0.0639
     17 C          -2.5888   -2.0552    7.1339 C.3     1  UNL1        0.1104
     18 H          -3.4899   -1.6598    7.6198 H       1  UNL1        0.0646
     19 O          -2.7390   -3.4927    7.1873 O.3     1  UNL1       -0.3865
     20 O          -3.9684   -1.9071    5.1851 O.3     1  UNL1       -0.3413
     21 C          -4.3169   -1.9183    3.7925 C.3     1  UNL1        0.1870
     22 H          -4.2231   -0.9140    3.3784 H       1  UNL1        0.0937
     23 C          -5.8099   -2.3609    3.7814 C.3     1  UNL1        0.1239
     24 H          -6.3929   -1.6828    4.4163 H       1  UNL1        0.0661
     25 C          -6.3848   -2.3865    2.3401 C.3     1  UNL1        0.0692
     26 H          -7.3979   -2.8091    2.3758 H       1  UNL1        0.0517
     27 C          -5.4815   -3.3167    1.4607 C.3     1  UNL1        0.1043
     28 C          -4.0010   -2.8863    1.6395 C.3     1  UNL1        0.0808
     29 O          -3.5538   -2.8463    3.0111 O.3     1  UNL1       -0.3459
     30 O          -5.8727   -3.2564    0.0768 O.3     1  UNL1       -0.3849
     31 C          -5.6609   -4.8057    1.8168 C.3     1  UNL1       -0.0323
     32 N          -6.5039   -0.9615    1.8875 N.3     1  UNL1       -0.3115
     33 C          -7.2782   -0.7842    0.6605 C.3     1  UNL1       -0.0154
     34 O          -5.9469   -3.6581    4.3933 O.3     1  UNL1       -0.3851
     35 N           0.6809   -0.1910    7.9878 N.3     1  UNL1       -0.3250
     36 C          -2.6868   -2.3053   11.5113 C.3     1  UNL1        0.0566
     37 H          -3.4370   -1.5065   11.4608 H       1  UNL1        0.0508
     38 N          -1.6208   -1.8243   12.4234 N.3     1  UNL1       -0.3232
     39 C          -3.3188   -3.5662   12.1130 C.3     1  UNL1       -0.0307
     40 C          -2.3671   -4.7543   12.0427 C.3     1  UNL1       -0.0237
     41 C          -2.6879   -5.6362    9.6364 C.3     1  UNL1        0.0196
     42 N          -3.1246   -6.9672   10.0558 N.3     1  UNL1       -0.3277
     43 H          -0.1555   -0.6662    5.5260 H       1  UNL1        0.0297
     44 H          -0.4265    1.0308    5.9028 H       1  UNL1        0.0297
     45 H          -1.8644    0.0294    3.5621 H       1  UNL1        0.1185
     46 H          -3.2837    0.7350    4.0239 H       1  UNL1        0.1185
     47 H          -1.9231   -3.8871    6.8306 H       1  UNL1        0.2100
     48 H          -3.8299   -1.9048    1.1748 H       1  UNL1        0.0590
     49 H          -3.3532   -3.5834    1.0964 H       1  UNL1        0.0590
     50 H          -5.4301   -2.4945   -0.3296 H       1  UNL1        0.2103
     51 H          -5.0037   -5.1332    2.6256 H       1  UNL1        0.0258
     52 H          -5.4532   -5.4460    0.9485 H       1  UNL1        0.0258
     53 H          -6.6967   -5.0221    2.1026 H       1  UNL1        0.0258
     54 H          -7.0257   -0.4646    2.6159 H       1  UNL1        0.1221
     55 H          -6.6765   -0.9568   -0.2331 H       1  UNL1        0.0388
     56 H          -7.5978    0.2624    0.5970 H       1  UNL1        0.0388
     57 H          -8.1788   -1.4043    0.6339 H       1  UNL1        0.0388
     58 H          -5.0637   -3.8728    4.7597 H       1  UNL1        0.2101
     59 H           0.7398   -0.3418    8.9961 H       1  UNL1        0.1185
     60 H           1.0287    0.7525    7.8172 H       1  UNL1        0.1185
     61 H          -1.2561   -0.9491   12.0470 H       1  UNL1        0.1186
     62 H          -0.8340   -2.4735   12.3571 H       1  UNL1        0.1186
     63 H          -4.2386   -3.8053   11.5642 H       1  UNL1        0.0283
     64 H          -3.6229   -3.3921   13.1521 H       1  UNL1        0.0283
     65 H          -2.8697   -5.6722   12.3655 H       1  UNL1        0.0291
     66 H          -1.5562   -4.5916   12.7620 H       1  UNL1        0.0291
     67 H          -2.1655   -5.7194    8.6762 H       1  UNL1        0.0447
     68 H          -3.5792   -5.0296    9.4499 H       1  UNL1        0.0447
     69 H          -2.3186   -7.5878   10.1201 H       1  UNL1        0.1183
     70 H          -3.7279   -7.3579    9.3324 H       1  UNL1        0.1183
@<TRIPOS>BOND
     1     1     2    1
     2     1     3    1
     3     1    40    1
     4     1    41    1
     5     3     4    1
     6     4     5    1
     7     4     6    1
     8     4    36    1
     9     7    17    1
    10     7     8    1
    11     7     6    1
    12     9     7    1
    13     9    10    1
    14     9    11    1
    15     9    35    1
    16    11    12    1
    17    11    43    1
    18    11    44    1
    19    12    15    1
    20    12    14    1
    21    12    13    1
    22    14    45    1
    23    14    46    1
    24    15    16    1
    25    15    17    1
    26    15    20    1
    27    17    19    1
    28    17    18    1
    29    19    47    1
    30    21    23    1
    31    21    29    1
    32    21    22    1
    33    21    20    1
    34    23    25    1
    35    23    34    1
    36    23    24    1
    37    25    27    1
    38    25    32    1
    39    25    26    1
    40    27    28    1
    41    27    30    1
    42    27    31    1
    43    28    29    1
    44    28    48    1
    45    28    49    1
    46    30    50    1
    47    31    51    1
    48    31    52    1
    49    31    53    1
    50    32    33    1
    51    32    54    1
    52    33    55    1
    53    33    56    1
    54    33    57    1
    55    34    58    1
    56    35    59    1
    57    35    60    1
    58    36    37    1
    59    36    38    1
    60    36    39    1
    61    38    61    1
    62    38    62    1
    63    39    40    1
    64    39    63    1
    65    39    64    1
    66    40    65    1
    67    40    66    1
    68    41    42    1
    69    41    67    1
    70    41    68    1
    71    42    69    1
    72    42    70    1
