REMARK  13 active torsions:
REMARK  status: ('A' for Active; 'I' for Inactive)
REMARK    1  A    between atoms: C_1  and  C_30 
REMARK    2  A    between atoms: C_3  and  O_4 
REMARK    3  A    between atoms: C_5  and  O_4 
REMARK    4  A    between atoms: C_6  and  N_25 
REMARK    5  A    between atoms: C_8  and  N_9 
REMARK    6  A    between atoms: C_10  and  O_13 
REMARK    7  A    between atoms: C_11  and  O_12 
REMARK    8  A    between atoms: C_14  and  O_13 
REMARK    9  A    between atoms: C_15  and  O_24 
REMARK   10  A    between atoms: C_16  and  N_22 
REMARK   11  A    between atoms: C_17  and  O_20 
REMARK   12  A    between atoms: C_26  and  N_27 
REMARK   13  A    between atoms: C_30  and  N_31 
ROOT
ATOM      1  C   UNL d   1      -1.348  -1.644   7.993  0.00  0.00     0.189 C 
ATOM      2  C   UNL d   1      -0.734  -0.278   7.580  0.00  0.00     0.251 C 
ATOM      3  C   UNL d   1      -0.809   0.018   6.086  0.00  0.00     0.076 C 
ATOM      4  C   UNL d   1      -2.251  -0.110   5.586  0.00  0.00     0.251 C 
ATOM      5  C   UNL d   1      -2.628  -1.613   5.625  0.00  0.00     0.189 C 
ATOM      6  C   UNL d   1      -2.589  -2.055   7.134  0.00  0.00     0.180 C 
ENDROOT
BRANCH   5   7
ATOM      7  O   UNL d   1      -3.968  -1.907   5.185  0.00  0.00    -0.348 OA
BRANCH   7   8
ATOM      8  C   UNL d   1      -4.317  -1.918   3.792  0.00  0.00     0.291 C 
ATOM      9  C   UNL d   1      -5.810  -2.361   3.781  0.00  0.00     0.209 C 
ATOM     10  C   UNL d   1      -6.385  -2.386   2.340  0.00  0.00     0.288 C 
ATOM     11  C   UNL d   1      -5.481  -3.317   1.461  0.00  0.00     0.109 C 
ATOM     12  C   UNL d   1      -4.001  -2.886   1.639  0.00  0.00     0.210 C 
ATOM     13  C   UNL d   1      -5.661  -4.806   1.817  0.00  0.00     0.050 C 
ATOM     14  O   UNL d   1      -3.554  -2.846   3.011  0.00  0.00    -0.356 OA
BRANCH   9  15
ATOM     15  O   UNL d   1      -5.947  -3.658   4.393  0.00  0.00    -0.388 OA
ATOM     16  H   UNL d   1      -5.064  -3.873   4.760  0.00  0.00     0.210 HD
ENDBRANCH   9  15
BRANCH  10  17
ATOM     17  N   UNL d   1      -6.504  -0.962   1.887  0.00  0.00     0.089 N 
ATOM     18  C   UNL d   1      -7.278  -0.784   0.660  0.00  0.00     0.307 C 
ATOM     19  H   UNL d   1      -7.026  -0.465   2.616  0.00  0.00     0.316 HD
ENDBRANCH  10  17
BRANCH  11  20
ATOM     20  O   UNL d   1      -5.873  -3.256   0.077  0.00  0.00    -0.386 OA
ATOM     21  H   UNL d   1      -5.430  -2.494  -0.330  0.00  0.00     0.210 HD
ENDBRANCH  11  20
ENDBRANCH   7   8
ENDBRANCH   5   7
BRANCH   4  22
ATOM     22  N   UNL d   1      -2.317   0.572   4.293  0.00  0.00     0.085 N 
ATOM     23  H   UNL d   1      -1.864   0.029   3.562  0.00  0.00     0.313 HD
ATOM     24  H   UNL d   1      -3.284   0.735   4.024  0.00  0.00     0.313 HD
ENDBRANCH   4  22
BRANCH   6  25
ATOM     25  O   UNL d   1      -2.739  -3.493   7.187  0.00  0.00    -0.390 OA
ATOM     26  H   UNL d   1      -1.923  -3.887   6.831  0.00  0.00     0.210 HD
ENDBRANCH   6  25
BRANCH   1  27
ATOM     27  O   UNL d   1      -1.666  -1.496   9.416  0.00  0.00    -0.349 OA
BRANCH  27  28
ATOM     28  C   UNL d   1      -2.203  -2.656  10.062  0.00  0.00     0.293 C 
ATOM     29  O   UNL d   1      -1.233  -3.705  10.125  0.00  0.00    -0.352 OA
ATOM     30  C   UNL d   1      -1.749  -4.942  10.651  0.00  0.00     0.152 C 
ATOM     31  C   UNL d   1      -2.367  -4.754  12.043  0.00  0.00     0.036 C 
ATOM     32  C   UNL d   1      -3.319  -3.566  12.113  0.00  0.00     0.043 C 
ATOM     33  C   UNL d   1      -2.687  -2.305  11.511  0.00  0.00     0.272 C 
BRANCH  30  34
ATOM     34  C   UNL d   1      -2.688  -5.636   9.636  0.00  0.00     0.298 C 
BRANCH  34  35
ATOM     35  N   UNL d   1      -3.125  -6.967  10.056  0.00  0.00     0.080 N 
ATOM     36  H   UNL d   1      -2.319  -7.588  10.120  0.00  0.00     0.312 HD
ATOM     37  H   UNL d   1      -3.728  -7.358   9.332  0.00  0.00     0.312 HD
ENDBRANCH  34  35
ENDBRANCH  30  34
BRANCH  33  38
ATOM     38  N   UNL d   1      -1.621  -1.824  12.423  0.00  0.00     0.087 N 
ATOM     39  H   UNL d   1      -1.256  -0.949  12.047  0.00  0.00     0.313 HD
ATOM     40  H   UNL d   1      -0.834  -2.474  12.357  0.00  0.00     0.313 HD
ENDBRANCH  33  38
ENDBRANCH  27  28
ENDBRANCH   1  27
BRANCH   2  41
ATOM     41  N   UNL d   1       0.681  -0.191   7.988  0.00  0.00     0.085 N 
ATOM     42  H   UNL d   1       0.740  -0.342   8.996  0.00  0.00     0.313 HD
ATOM     43  H   UNL d   1       1.029   0.752   7.817  0.00  0.00     0.313 HD
ENDBRANCH   2  41
TORSDOF 13
