@<TRIPOS>MOLECULE
1ZZ5_CNY_A_42
 85 89 0 0 0
SMALL
GASTEIGER

@<TRIPOS>ATOM
      1 C           0.0000    0.0000   -0.0000 C.3     1  UNL1        0.1778
      2 H          -0.0000   -0.0000   -0.0000 H       1  UNL1        0.0927
      3 O          -0.0000   -0.0000   -0.0000 O.3     1  UNL1       -0.3422
      4 C          -0.0000   -0.0000   -0.0000 C.3     1  UNL1        0.1055
      5 H          -0.0000   -0.0000   -0.0000 H       1  UNL1        0.0639
      6 C          -0.0000   -0.0000   -0.0000 C.3     1  UNL1        0.0355
      7 H          -0.0000   -0.0000   -0.0000 H       1  UNL1        0.0485
      8 C          -0.0000   -0.0000   -0.0000 C.3     1  UNL1       -0.0175
      9 C          -0.0000   -0.0000   -0.0000 C.3     1  UNL1        0.0351
     10 H          -0.0000   -0.0000   -0.0000 H       1  UNL1        0.0485
     11 N          -0.0000   -0.0000   -0.0000 N.3     1  UNL1       -0.3250
     12 C          -0.0000   -0.0000   -0.0000 C.3     1  UNL1        0.0990
     13 H          -0.0000   -0.0000   -0.0000 H       1  UNL1        0.0636
     14 C          -0.0000   -0.0000   -0.0000 C.3     1  UNL1        0.1166
     15 H          -0.0000   -0.0000   -0.0000 H       1  UNL1        0.0650
     16 O          -0.0000   -0.0000   -0.0000 O.3     1  UNL1       -0.3402
     17 C          -0.0000   -0.0000   -0.0000 C.3     1  UNL1        0.1884
     18 H          -0.0000   -0.0000   -0.0000 H       1  UNL1        0.0938
     19 C          -0.0000   -0.0000   -0.0000 C.3     1  UNL1        0.1345
     20 H          -0.0000   -0.0000   -0.0000 H       1  UNL1        0.0671
     21 O          -0.0000   -0.0000   -0.0000 O.3     1  UNL1       -0.3841
     22 C          -0.0000   -0.0000   -0.0000 C.3     1  UNL1        0.1196
     23 H          -0.0000   -0.0000   -0.0000 H       1  UNL1        0.0651
     24 O          -0.0000   -0.0000   -0.0000 O.3     1  UNL1       -0.3411
     25 C          -0.0000   -0.0000   -0.0000 C.3     1  UNL1        0.1776
     26 H          -0.0000   -0.0000   -0.0000 H       1  UNL1        0.0927
     27 C          -0.0000   -0.0000   -0.0000 C.3     1  UNL1        0.0853
     28 H          -0.0000   -0.0000   -0.0000 H       1  UNL1        0.0535
     29 N          -0.0000   -0.0000   -0.0000 N.3     1  UNL1       -0.3211
     30 C          -0.0000   -0.0000   -0.0000 C.3     1  UNL1        0.1033
     31 H          -0.0000   -0.0000   -0.0000 H       1  UNL1        0.0637
     32 O          -0.0000   -0.0000   -0.0000 O.3     1  UNL1       -0.3874
     33 C          -0.0000   -0.0000   -0.0000 C.3     1  UNL1        0.1100
     34 H          -0.0000   -0.0000   -0.0000 H       1  UNL1        0.0646
     35 O          -0.0000   -0.0000   -0.0000 O.3     1  UNL1       -0.3866
     36 C          -0.0000   -0.0000   -0.0000 C.3     1  UNL1        0.1022
     37 H          -0.0000   -0.0000   -0.0000 H       1  UNL1        0.0636
     38 O          -0.0000   -0.0000   -0.0000 O.3     1  UNL1       -0.3425
     39 C          -0.0000   -0.0000   -0.0000 C.3     1  UNL1        0.0222
     40 N          -0.0000   -0.0000   -0.0000 N.3     1  UNL1       -0.3276
     41 C          -0.0000   -0.0000   -0.0000 C.3     1  UNL1        0.1029
     42 H          -0.0000   -0.0000   -0.0000 H       1  UNL1        0.0637
     43 O          -0.0000   -0.0000   -0.0000 O.3     1  UNL1       -0.3415
     44 C          -0.0000    0.0000    0.0000 C.3     1  UNL1        0.0253
     45 N          -0.0000   -0.0000   -0.0000 N.3     1  UNL1       -0.3043
     46 C          -0.0000   -0.0000   -0.0000 C.3     1  UNL1        0.0879
     47 H          -0.0000   -0.0000   -0.0000 H       1  UNL1        0.0537
     48 C          -0.0000   -0.0000   -0.0000 C.3     1  UNL1        0.1035
     49 H          -0.0000   -0.0000   -0.0000 H       1  UNL1        0.0637
     50 O          -0.0000   -0.0000   -0.0000 O.3     1  UNL1       -0.3874
     51 C          -0.0000   -0.0000   -0.0000 C.3     1  UNL1        0.1100
     52 H          -0.0000   -0.0000   -0.0000 H       1  UNL1        0.0646
     53 O          -0.0000   -0.0000   -0.0000 O.3     1  UNL1       -0.3866
     54 C          -0.0000   -0.0000   -0.0000 C.3     1  UNL1        0.1022
     55 H          -0.0000   -0.0000   -0.0000 H       1  UNL1        0.0636
     56 O          -0.0000   -0.0000   -0.0000 O.3     1  UNL1       -0.3425
     57 C          -0.0000   -0.0000   -0.0000 C.3     1  UNL1        0.0222
     58 N          -0.0000   -0.0000   -0.0000 N.3     1  UNL1       -0.3276
     59 O          -0.0000   -0.0000   -0.0000 O.3     1  UNL1       -0.3876
     60 N          -0.0000   -0.0000   -0.0000 N.3     1  UNL1       -0.3250
     61 H           0.0000    0.0000    0.0000 H       1  UNL1        0.0297
     62 H           0.0000    0.0000    0.0000 H       1  UNL1        0.0297
     63 H           0.0000    0.0000    0.0000 H       1  UNL1        0.1185
     64 H           0.0000    0.0000    0.0000 H       1  UNL1        0.1185
     65 H           0.0000    0.0000    0.0000 H       1  UNL1        0.2101
     66 H          -0.0000   -0.0000   -0.0000 H       1  UNL1        0.1187
     67 H          -0.0000   -0.0000   -0.0000 H       1  UNL1        0.1187
     68 H          -0.0000   -0.0000   -0.0000 H       1  UNL1        0.2100
     69 H          -0.0000   -0.0000   -0.0000 H       1  UNL1        0.2100
     70 H          -0.0000   -0.0000   -0.0000 H       1  UNL1        0.0448
     71 H          -0.0000   -0.0000   -0.0000 H       1  UNL1        0.0448
     72 H          -0.0000   -0.0000   -0.0000 H       1  UNL1        0.1183
     73 H          -0.0000   -0.0000   -0.0000 H       1  UNL1        0.1183
     74 H           0.0000    0.0000    0.0000 H       1  UNL1        0.0450
     75 H           0.0000    0.0000    0.0000 H       1  UNL1        0.0450
     76 H           0.0000    0.0000    0.0000 H       1  UNL1        0.1225
     77 H           0.0000    0.0000    0.0000 H       1  UNL1        0.2100
     78 H           0.0000    0.0000    0.0000 H       1  UNL1        0.2100
     79 H          -0.0000   -0.0000   -0.0000 H       1  UNL1        0.0448
     80 H          -0.0000   -0.0000   -0.0000 H       1  UNL1        0.0448
     81 H          -0.0000   -0.0000   -0.0000 H       1  UNL1        0.1183
     82 H          -0.0000   -0.0000   -0.0000 H       1  UNL1        0.1183
     83 H           0.0000    0.0000    0.0000 H       1  UNL1        0.2100
     84 H           0.0000    0.0000    0.0000 H       1  UNL1        0.1185
     85 H           0.0000    0.0000    0.0000 H       1  UNL1        0.1185
@<TRIPOS>BOND
     1     1     2    1
     2     1     3    1
     3     1    46    1
     4     1    56    1
     5     3     4    1
     6     4     5    1
     7     4     6    1
     8     6     8    1
     9     6    60    1
    10     6     7    1
    11     8     9    1
    12     8    61    1
    13     8    62    1
    14     9    12    1
    15     9    11    1
    16     9    10    1
    17    11    63    1
    18    11    64    1
    19    12    13    1
    20    12    14    1
    21    12    59    1
    22    14    15    1
    23    14     4    1
    24    14    16    1
    25    16    17    1
    26    17    18    1
    27    17    19    1
    28    17    43    1
    29    19    20    1
    30    19    21    1
    31    19    22    1
    32    21    65    1
    33    22    23    1
    34    22    24    1
    35    22    41    1
    36    25    27    1
    37    25    38    1
    38    25    26    1
    39    25    24    1
    40    27    30    1
    41    27    29    1
    42    27    28    1
    43    29    66    1
    44    29    67    1
    45    30    33    1
    46    30    32    1
    47    30    31    1
    48    32    68    1
    49    33    34    1
    50    33    35    1
    51    33    36    1
    52    35    69    1
    53    36    37    1
    54    36    38    1
    55    36    39    1
    56    39    40    1
    57    39    70    1
    58    39    71    1
    59    40    72    1
    60    40    73    1
    61    41    42    1
    62    41    43    1
    63    41    44    1
    64    44    45    1
    65    44    74    1
    66    44    75    1
    67    45    46    1
    68    45    76    1
    69    46    47    1
    70    46    48    1
    71    48    51    1
    72    48    50    1
    73    48    49    1
    74    50    77    1
    75    51    52    1
    76    51    53    1
    77    51    54    1
    78    53    78    1
    79    54    56    1
    80    54    57    1
    81    54    55    1
    82    57    58    1
    83    57    79    1
    84    57    80    1
    85    58    81    1
    86    58    82    1
    87    59    83    1
    88    60    84    1
    89    60    85    1
