1ZZ5_CNY_A_42
 OpenBabel03221817173D

 85 89  0  0  1  0  0  0  0  0999 V2000
    0.0000    0.0000   -0.0000 C   0  0  2  0  0  0  0  0  0  0  0  0
   -0.0000   -0.0000   -0.0000 H   0  0  0  0  0  0  0  0  0  0  0  0
   -0.0000   -0.0000   -0.0000 O   0  0  0  0  0  0  0  0  0  0  0  0
   -0.0000   -0.0000   -0.0000 C   0  0  2  0  0  0  0  0  0  0  0  0
   -0.0000   -0.0000   -0.0000 H   0  0  0  0  0  0  0  0  0  0  0  0
   -0.0000   -0.0000   -0.0000 C   0  0  2  0  0  0  0  0  0  0  0  0
   -0.0000   -0.0000   -0.0000 H   0  0  0  0  0  0  0  0  0  0  0  0
   -0.0000   -0.0000   -0.0000 C   0  0  0  0  0  0  0  0  0  0  0  0
   -0.0000   -0.0000   -0.0000 C   0  0  1  0  0  0  0  0  0  0  0  0
   -0.0000   -0.0000   -0.0000 H   0  0  0  0  0  0  0  0  0  0  0  0
   -0.0000   -0.0000   -0.0000 N   0  0  0  0  0  0  0  0  0  0  0  0
   -0.0000   -0.0000   -0.0000 C   0  0  1  0  0  0  0  0  0  0  0  0
   -0.0000   -0.0000   -0.0000 H   0  0  0  0  0  0  0  0  0  0  0  0
   -0.0000   -0.0000   -0.0000 C   0  0  1  0  0  0  0  0  0  0  0  0
   -0.0000   -0.0000   -0.0000 H   0  0  0  0  0  0  0  0  0  0  0  0
   -0.0000   -0.0000   -0.0000 O   0  0  0  0  0  0  0  0  0  0  0  0
   -0.0000   -0.0000   -0.0000 C   0  0  1  0  0  0  0  0  0  0  0  0
   -0.0000   -0.0000   -0.0000 H   0  0  0  0  0  0  0  0  0  0  0  0
   -0.0000   -0.0000   -0.0000 C   0  0  2  0  0  0  0  0  0  0  0  0
   -0.0000   -0.0000   -0.0000 H   0  0  0  0  0  0  0  0  0  0  0  0
   -0.0000   -0.0000   -0.0000 O   0  0  0  0  0  0  0  0  0  0  0  0
   -0.0000   -0.0000   -0.0000 C   0  0  2  0  0  0  0  0  0  0  0  0
   -0.0000   -0.0000   -0.0000 H   0  0  0  0  0  0  0  0  0  0  0  0
   -0.0000   -0.0000   -0.0000 O   0  0  0  0  0  0  0  0  0  0  0  0
   -0.0000   -0.0000   -0.0000 C   0  0  2  0  0  0  0  0  0  0  0  0
   -0.0000   -0.0000   -0.0000 H   0  0  0  0  0  0  0  0  0  0  0  0
   -0.0000   -0.0000   -0.0000 C   0  0  2  0  0  0  0  0  0  0  0  0
   -0.0000   -0.0000   -0.0000 H   0  0  0  0  0  0  0  0  0  0  0  0
   -0.0000   -0.0000   -0.0000 N   0  0  0  0  0  0  0  0  0  0  0  0
   -0.0000   -0.0000   -0.0000 C   0  0  1  0  0  0  0  0  0  0  0  0
   -0.0000   -0.0000   -0.0000 H   0  0  0  0  0  0  0  0  0  0  0  0
   -0.0000   -0.0000   -0.0000 O   0  0  0  0  0  0  0  0  0  0  0  0
   -0.0000   -0.0000   -0.0000 C   0  0  2  0  0  0  0  0  0  0  0  0
   -0.0000   -0.0000   -0.0000 H   0  0  0  0  0  0  0  0  0  0  0  0
   -0.0000   -0.0000   -0.0000 O   0  0  0  0  0  0  0  0  0  0  0  0
   -0.0000   -0.0000   -0.0000 C   0  0  1  0  0  0  0  0  0  0  0  0
   -0.0000   -0.0000   -0.0000 H   0  0  0  0  0  0  0  0  0  0  0  0
   -0.0000   -0.0000   -0.0000 O   0  0  0  0  0  0  0  0  0  0  0  0
   -0.0000   -0.0000   -0.0000 C   0  0  0  0  0  0  0  0  0  0  0  0
   -0.0000   -0.0000   -0.0000 N   0  0  0  0  0  0  0  0  0  0  0  0
   -0.0000   -0.0000   -0.0000 C   0  0  2  0  0  0  0  0  0  0  0  0
   -0.0000   -0.0000   -0.0000 H   0  0  0  0  0  0  0  0  0  0  0  0
   -0.0000   -0.0000   -0.0000 O   0  0  0  0  0  0  0  0  0  0  0  0
   -0.0000    0.0000    0.0000 C   0  0  0  0  0  0  0  0  0  0  0  0
   -0.0000   -0.0000   -0.0000 N   0  0  0  0  0  0  0  0  0  0  0  0
   -0.0000   -0.0000   -0.0000 C   0  0  2  0  0  0  0  0  0  0  0  0
   -0.0000   -0.0000   -0.0000 H   0  0  0  0  0  0  0  0  0  0  0  0
   -0.0000   -0.0000   -0.0000 C   0  0  1  0  0  0  0  0  0  0  0  0
   -0.0000   -0.0000   -0.0000 H   0  0  0  0  0  0  0  0  0  0  0  0
   -0.0000   -0.0000   -0.0000 O   0  0  0  0  0  0  0  0  0  0  0  0
   -0.0000   -0.0000   -0.0000 C   0  0  2  0  0  0  0  0  0  0  0  0
   -0.0000   -0.0000   -0.0000 H   0  0  0  0  0  0  0  0  0  0  0  0
   -0.0000   -0.0000   -0.0000 O   0  0  0  0  0  0  0  0  0  0  0  0
   -0.0000   -0.0000   -0.0000 C   0  0  2  0  0  0  0  0  0  0  0  0
   -0.0000   -0.0000   -0.0000 H   0  0  0  0  0  0  0  0  0  0  0  0
   -0.0000   -0.0000   -0.0000 O   0  0  0  0  0  0  0  0  0  0  0  0
   -0.0000   -0.0000   -0.0000 C   0  0  0  0  0  0  0  0  0  0  0  0
   -0.0000   -0.0000   -0.0000 N   0  0  0  0  0  0  0  0  0  0  0  0
   -0.0000   -0.0000   -0.0000 O   0  0  0  0  0  0  0  0  0  0  0  0
   -0.0000   -0.0000   -0.0000 N   0  0  0  0  0  0  0  0  0  0  0  0
    0.0000    0.0000    0.0000 H   0  0  0  0  0  0  0  0  0  0  0  0
    0.0000    0.0000    0.0000 H   0  0  0  0  0  0  0  0  0  0  0  0
    0.0000    0.0000    0.0000 H   0  0  0  0  0  0  0  0  0  0  0  0
    0.0000    0.0000    0.0000 H   0  0  0  0  0  0  0  0  0  0  0  0
    0.0000    0.0000    0.0000 H   0  0  0  0  0  0  0  0  0  0  0  0
   -0.0000   -0.0000   -0.0000 H   0  0  0  0  0  0  0  0  0  0  0  0
   -0.0000   -0.0000   -0.0000 H   0  0  0  0  0  0  0  0  0  0  0  0
   -0.0000   -0.0000   -0.0000 H   0  0  0  0  0  0  0  0  0  0  0  0
   -0.0000   -0.0000   -0.0000 H   0  0  0  0  0  0  0  0  0  0  0  0
   -0.0000   -0.0000   -0.0000 H   0  0  0  0  0  0  0  0  0  0  0  0
   -0.0000   -0.0000   -0.0000 H   0  0  0  0  0  0  0  0  0  0  0  0
   -0.0000   -0.0000   -0.0000 H   0  0  0  0  0  0  0  0  0  0  0  0
   -0.0000   -0.0000   -0.0000 H   0  0  0  0  0  0  0  0  0  0  0  0
    0.0000    0.0000    0.0000 H   0  0  0  0  0  0  0  0  0  0  0  0
    0.0000    0.0000    0.0000 H   0  0  0  0  0  0  0  0  0  0  0  0
    0.0000    0.0000    0.0000 H   0  0  0  0  0  0  0  0  0  0  0  0
    0.0000    0.0000    0.0000 H   0  0  0  0  0  0  0  0  0  0  0  0
    0.0000    0.0000    0.0000 H   0  0  0  0  0  0  0  0  0  0  0  0
   -0.0000   -0.0000   -0.0000 H   0  0  0  0  0  0  0  0  0  0  0  0
   -0.0000   -0.0000   -0.0000 H   0  0  0  0  0  0  0  0  0  0  0  0
   -0.0000   -0.0000   -0.0000 H   0  0  0  0  0  0  0  0  0  0  0  0
   -0.0000   -0.0000   -0.0000 H   0  0  0  0  0  0  0  0  0  0  0  0
    0.0000    0.0000    0.0000 H   0  0  0  0  0  0  0  0  0  0  0  0
    0.0000    0.0000    0.0000 H   0  0  0  0  0  0  0  0  0  0  0  0
    0.0000    0.0000    0.0000 H   0  0  0  0  0  0  0  0  0  0  0  0
  1  2  1  0  0  0  0
  1  3  1  0  0  0  0
  1 46  1  1  0  0  0
  1 56  1  0  0  0  0
  3  4  1  0  0  0  0
  4  5  1  0  0  0  0
  4  6  1  1  0  0  0
  6  8  1  0  0  0  0
  6 60  1  0  0  0  0
  6  7  1  1  0  0  0
  8  9  1  0  0  0  0
  8 61  1  0  0  0  0
  8 62  1  0  0  0  0
  9 12  1  0  0  0  0
  9 11  1  0  0  0  0
  9 10  1  1  0  0  0
 11 63  1  0  0  0  0
 11 64  1  0  0  0  0
 12 13  1  0  0  0  0
 12 14  1  1  0  0  0
 12 59  1  0  0  0  0
 14 15  1  0  0  0  0
 14  4  1  1  0  0  0
 14 16  1  0  0  0  0
 16 17  1  0  0  0  0
 17 18  1  0  0  0  0
 17 19  1  1  0  0  0
 17 43  1  0  0  0  0
 19 20  1  0  0  0  0
 19 21  1  0  0  0  0
 19 22  1  1  0  0  0
 21 65  1  0  0  0  0
 22 23  1  0  0  0  0
 22 24  1  0  0  0  0
 22 41  1  1  0  0  0
 25 27  1  0  0  0  0
 25 38  1  0  0  0  0
 25 26  1  1  0  0  0
 25 24  1  0  0  0  0
 27 30  1  0  0  0  0
 27 29  1  0  0  0  0
 27 28  1  1  0  0  0
 29 66  1  0  0  0  0
 29 67  1  0  0  0  0
 30 33  1  0  0  0  0
 30 32  1  0  0  0  0
 30 31  1  1  0  0  0
 32 68  1  0  0  0  0
 33 34  1  0  0  0  0
 33 35  1  0  0  0  0
 33 36  1  1  0  0  0
 35 69  1  0  0  0  0
 36 37  1  1  0  0  0
 36 38  1  0  0  0  0
 36 39  1  0  0  0  0
 39 40  1  0  0  0  0
 39 70  1  0  0  0  0
 39 71  1  0  0  0  0
 40 72  1  0  0  0  0
 40 73  1  0  0  0  0
 41 42  1  1  0  0  0
 41 43  1  0  0  0  0
 41 44  1  0  0  0  0
 44 45  1  0  0  0  0
 44 74  1  0  0  0  0
 44 75  1  0  0  0  0
 45 46  1  0  0  0  0
 45 76  1  0  0  0  0
 46 47  1  0  0  0  0
 46 48  1  1  0  0  0
 48 51  1  0  0  0  0
 48 50  1  0  0  0  0
 48 49  1  1  0  0  0
 50 77  1  0  0  0  0
 51 52  1  0  0  0  0
 51 53  1  0  0  0  0
 51 54  1  1  0  0  0
 53 78  1  0  0  0  0
 54 56  1  0  0  0  0
 54 57  1  0  0  0  0
 54 55  1  1  0  0  0
 57 58  1  0  0  0  0
 57 79  1  0  0  0  0
 57 80  1  0  0  0  0
 58 81  1  0  0  0  0
 58 82  1  0  0  0  0
 59 83  1  0  0  0  0
 60 84  1  0  0  0  0
 60 85  1  0  0  0  0
M  END
$$$$
