@<TRIPOS>MOLECULE
3SUH_FFO_X_103
 34 36 0 0 0
SMALL
GASTEIGER
****
Coordinates from PDB:3SUH:X:103 Model:1 without hydrogens
@<TRIPOS>ATOM
      1 N          11.1140   42.5840   66.3610 N.ar    0  UNK0       -0.1932
      2 C          11.9770   43.6050   66.2190 C.ar    0  UNK0        0.2605
      3 N          12.4250   43.9300   65.0090 N.pl3   0  UNK0       -0.0859
      4 N          12.4120   44.3340   67.3330 N.ar    0  UNK0       -0.1712
      5 C          11.9340   43.9890   68.5900 C.ar    0  UNK0        0.2982
      6 O          12.2930   44.6200   69.5810 O.2     0  UNK0       -0.2636
      7 C          11.0190   42.9500   68.6980 C.ar    0  UNK0        0.1461
      8 N          10.5660   42.5250   69.9420 N.am    0  UNK0       -0.2432
      9 C           9.2830   41.8210   70.0440 C.3     0  UNK0        0.1235
     10 C           9.2540   40.6990   69.0030 C.3     0  UNK0        0.1357
     11 N           9.7540   41.1620   67.6850 N.pl3   0  UNK0       -0.2172
     12 C          10.6420   42.2370   67.5680 C.ar    0  UNK0        0.1691
     13 C           8.1190   42.7900   69.8100 C.3     0  UNK0        0.1341
     14 N           8.0220   43.7270   70.9360 N.pl3   0  UNK0       -0.2358
     15 C           6.2080   42.7520   74.5210 C.ar    0  UNK0        0.0551
     16 C           6.4700   44.0800   74.1930 C.ar    0  UNK0        0.0059
     17 C           7.1000   44.4000   72.9920 C.ar    0  UNK0        0.0162
     18 C           7.4340   43.3990   72.0860 C.ar    0  UNK0        0.0654
     19 C           7.1650   42.0730   72.4080 C.ar    0  UNK0        0.0162
     20 C           6.5670   41.7490   73.6250 C.ar    0  UNK0        0.0059
     21 C           5.5680   42.3920   75.8740 C.2     0  UNK0        0.2652
     22 O           5.2550   43.2690   76.6840 O.2     0  UNK0       -0.2684
     23 N           5.4300   41.0780   76.0940 N.am    1  GLU1       -0.1918
     24 CA          4.8830   40.5030   77.3450 C.3     1  GLU1        0.1986
     25 CB          5.7640   40.9160   78.5360 C.3     1  GLU1        0.0451
     26 CG          6.0770   39.7220   79.4480 C.3     1  GLU1        0.1164
     27 CD          6.8140   40.1710   80.7190 C.2     1  GLU1        0.3649
     28 OE1         6.1860   40.9090   81.5140 O.co2   1  GLU1       -0.2457
     29 OE2         7.9890   39.7640   80.8690 O.co2   1  GLU1       -0.2457
     30 C           3.4260   40.9440   77.5950 C.2     1  GLU1        0.3842
     31 O           2.9450   41.8190   76.8350 O.co2   1  GLU1       -0.2437
     32 OXT         2.8260   40.3930   78.5500 O.co2   1  GLU1       -0.2437
     33 C          11.3820   42.6010   70.9890 C.2     0  UNK0        0.3072
     34 O          11.0320   42.1690   72.0850 O.2     0  UNK0       -0.2646
@<TRIPOS>BOND
     1     1     2   ar
     2     1    12   ar
     3     2     3    1
     4     2     4   ar
     5     4     5   ar
     6     5     6    2
     7     5     7   ar
     8     7     8    1
     9     7    12   ar
    10     8     9    1
    11     8    33   am
    12     9    10    1
    13     9    13    1
    14    10    11    1
    15    11    12    1
    16    13    14    1
    17    14    18    1
    18    15    16   ar
    19    15    20   ar
    20    15    21    1
    21    16    17   ar
    22    17    18   ar
    23    18    19   ar
    24    19    20   ar
    25    21    22    2
    26    21    23   am
    27    23    24    1
    28    24    25    1
    29    24    30    1
    30    25    26    1
    31    26    27    1
    32    27    28   ar
    33    27    29   ar
    34    30    31   ar
    35    30    32   ar
    36    33    34    2
