3SUH_FFO_X_103
 OpenBabel10091713573D
Coordinates from PDB:3SUH:X:103 Model:1 without hydrogens
 57 59  0  0  0  0  0  0  0  0999 V2000
   11.1140   42.5840   66.3610 N   0  0  0  0  0  0  0  0  0  0  0  0
   11.9770   43.6050   66.2190 C   0  0  0  0  0  0  0  0  0  0  0  0
   12.4250   43.9300   65.0090 N   0  0  0  0  0  0  0  0  0  0  0  0
   12.4120   44.3340   67.3330 N   0  0  0  0  0  0  0  0  0  0  0  0
   11.9340   43.9890   68.5900 C   0  0  0  0  0  0  0  0  0  0  0  0
   12.2930   44.6200   69.5810 O   0  0  0  0  0  0  0  0  0  0  0  0
   11.0190   42.9500   68.6980 C   0  0  0  0  0  0  0  0  0  0  0  0
   10.5660   42.5250   69.9420 N   0  0  0  0  0  0  0  0  0  0  0  0
    9.2830   41.8210   70.0440 C   0  0  2  0  0  0  0  0  0  0  0  0
    9.2540   40.6990   69.0030 C   0  0  0  0  0  0  0  0  0  0  0  0
    9.7540   41.1620   67.6850 N   0  0  0  0  0  0  0  0  0  0  0  0
   10.6420   42.2370   67.5680 C   0  0  0  0  0  0  0  0  0  0  0  0
    8.1190   42.7900   69.8100 C   0  0  0  0  0  0  0  0  0  0  0  0
    8.0220   43.7270   70.9360 N   0  0  0  0  0  0  0  0  0  0  0  0
    6.2080   42.7520   74.5210 C   0  0  0  0  0  0  0  0  0  0  0  0
    6.4700   44.0800   74.1930 C   0  0  0  0  0  0  0  0  0  0  0  0
    7.1000   44.4000   72.9920 C   0  0  0  0  0  0  0  0  0  0  0  0
    7.4340   43.3990   72.0860 C   0  0  0  0  0  0  0  0  0  0  0  0
    7.1650   42.0730   72.4080 C   0  0  0  0  0  0  0  0  0  0  0  0
    6.5670   41.7490   73.6250 C   0  0  0  0  0  0  0  0  0  0  0  0
    5.5680   42.3920   75.8740 C   0  0  0  0  0  0  0  0  0  0  0  0
    5.2550   43.2690   76.6840 O   0  0  0  0  0  0  0  0  0  0  0  0
    5.4300   41.0780   76.0940 N   0  0  0  0  0  0  0  0  0  0  0  0
    4.8830   40.5030   77.3450 C   0  0  1  0  0  0  0  0  0  0  0  0
    5.7640   40.9160   78.5360 C   0  0  0  0  0  0  0  0  0  0  0  0
    6.0770   39.7220   79.4480 C   0  0  0  0  0  0  0  0  0  0  0  0
    6.8140   40.1710   80.7190 C   0  0  0  0  0  0  0  0  0  0  0  0
    6.1860   40.9090   81.5140 O   0  0  0  0  0  0  0  0  0  0  0  0
    7.9890   39.7640   80.8690 O   0  0  0  0  0  0  0  0  0  0  0  0
    3.4260   40.9440   77.5950 C   0  0  0  0  0  0  0  0  0  0  0  0
    2.9450   41.8190   76.8350 O   0  0  0  0  0  0  0  0  0  0  0  0
    2.8260   40.3930   78.5500 O   0  0  0  0  0  0  0  0  0  0  0  0
   11.3820   42.6010   70.9890 C   0  0  0  0  0  0  0  0  0  0  0  0
   11.0320   42.1690   72.0850 O   0  0  0  0  0  0  0  0  0  0  0  0
   12.1246   43.4231   64.2203 H   0  0  0  0  0  0  0  0  0  0  0  0
   13.0569   44.6774   64.9024 H   0  0  0  0  0  0  0  0  0  0  0  0
   13.0466   45.0791   67.2264 H   0  0  0  0  0  0  0  0  0  0  0  0
    9.1784   41.4084   71.0257 H   0  0  0  0  0  0  0  0  0  0  0  0
    8.2468   40.3556   68.8909 H   0  0  0  0  0  0  0  0  0  0  0  0
    9.8916   39.9103   69.3440 H   0  0  0  0  0  0  0  0  0  0  0  0
    9.4524   40.6998   66.8697 H   0  0  0  0  0  0  0  0  0  0  0  0
    7.2067   42.2370   69.7278 H   0  0  0  0  0  0  0  0  0  0  0  0
    8.2896   43.3376   68.9067 H   0  0  0  0  0  0  0  0  0  0  0  0
    8.4046   44.6288   70.8381 H   0  0  0  0  0  0  0  0  0  0  0  0
    6.1956   44.8323   74.8440 H   0  0  0  0  0  0  0  0  0  0  0  0
    7.3198   45.3844   72.7738 H   0  0  0  0  0  0  0  0  0  0  0  0
    7.4097   41.3239   71.7416 H   0  0  0  0  0  0  0  0  0  0  0  0
    6.3896   40.7606   73.8628 H   0  0  0  0  0  0  0  0  0  0  0  0
    5.7086   40.4575   75.3822 H   0  0  0  0  0  0  0  0  0  0  0  0
    4.8857   39.4381   77.2410 H   0  0  0  0  0  0  0  0  0  0  0  0
    5.2507   41.6626   79.1052 H   0  0  0  0  0  0  0  0  0  0  0  0
    6.6881   41.2958   78.1529 H   0  0  0  0  0  0  0  0  0  0  0  0
    6.6922   39.0276   78.9149 H   0  0  0  0  0  0  0  0  0  0  0  0
    5.1535   39.2647   79.7359 H   0  0  0  0  0  0  0  0  0  0  0  0
    8.3803   39.2128   80.2201 H   0  0  0  0  0  0  0  0  0  0  0  0
    3.2639   39.7465   79.0679 H   0  0  0  0  0  0  0  0  0  0  0  0
   12.3162   43.0259   70.8805 H   0  0  0  0  0  0  0  0  0  0  0  0
  1  2  2  0  0  0  0
  1 12  1  0  0  0  0
  2  3  1  0  0  0  0
  2  4  1  0  0  0  0
  3 35  1  0  0  0  0
  3 36  1  0  0  0  0
  4  5  1  0  0  0  0
  4 37  1  0  0  0  0
  5  6  2  0  0  0  0
  5  7  1  0  0  0  0
  7  8  1  0  0  0  0
  7 12  2  0  0  0  0
  8  9  1  0  0  0  0
  8 33  1  0  0  0  0
  9 10  1  0  0  0  0
  9 13  1  0  0  0  0
  9 38  1  1  0  0  0
 10 11  1  0  0  0  0
 10 39  1  0  0  0  0
 10 40  1  0  0  0  0
 11 12  1  0  0  0  0
 11 41  1  0  0  0  0
 13 14  1  0  0  0  0
 13 42  1  0  0  0  0
 13 43  1  0  0  0  0
 14 18  1  0  0  0  0
 14 44  1  0  0  0  0
 15 16  2  0  0  0  0
 15 20  1  0  0  0  0
 15 21  1  0  0  0  0
 16 17  1  0  0  0  0
 16 45  1  0  0  0  0
 17 18  2  0  0  0  0
 17 46  1  0  0  0  0
 18 19  1  0  0  0  0
 19 20  2  0  0  0  0
 19 47  1  0  0  0  0
 20 48  1  0  0  0  0
 21 22  2  0  0  0  0
 21 23  1  0  0  0  0
 23 24  1  0  0  0  0
 23 49  1  0  0  0  0
 24 25  1  0  0  0  0
 24 30  1  0  0  0  0
 24 50  1  6  0  0  0
 25 26  1  0  0  0  0
 25 51  1  0  0  0  0
 25 52  1  0  0  0  0
 26 27  1  0  0  0  0
 26 53  1  0  0  0  0
 26 54  1  0  0  0  0
 27 28  2  0  0  0  0
 27 29  1  0  0  0  0
 29 55  1  0  0  0  0
 30 31  2  0  0  0  0
 30 32  1  0  0  0  0
 32 56  1  0  0  0  0
 33 34  2  0  0  0  0
 33 57  1  0  0  0  0
A    1
N1
A    2
C2
A    3
NA2
A    4
N3
A    5
C4
A    6
O4
A    7
C4A
A    8
N5
A    9
C6
A   10
C7
A   11
N8
A   12
C8A
A   13
C9
A   14
N10
A   15
C11
A   16
C12
A   17
C13
A   18
C14
A   19
C15
A   20
C16
A   21
C
A   22
O
A   23
N
A   24
CA
A   25
CB
A   26
CG
A   27
CD
A   28
OE1
A   29
OE2
A   30
CT
A   31
O1
A   32
O2
A   33
C5A
A   34
O5B
M  END
>  <InstanceId>
3SUH_FFO_X_103

>  <ChemCompId>
FFO

>  <PdbId>
3SUH

>  <ChainId>
X

>  <ResidueNumber>
103

>  <InsertionCode>


>  <Model>
1

>  <AltIds>


>  <MissingHeavyAtoms>
0

>  <ObservedFormula>
C20 N7 O7

>  <Name>
N-[4-({[(6S)-2-amino-5-formyl-4-oxo-3,4,5,6,7,8-hexahydropteridin-6-yl]methyl}amino)benzoyl]-L-glutamic acid

>  <SystematicName>
2-[[4-[(2-azanyl-5-methanoyl-4-oxidanylidene-3,6,7,8-tetrahydropteridin-6-yl)methylamino]phenyl]carbonylamino]pentanedioic acid

>  <Synonyms>
[6S]-5-FORMYL-TETRAHYDROFOLATE; 6S-FOLINIC ACID

>  <Type>
NON-POLYMER

>  <Formula>
C20 H23 N7 O7

>  <MolecularWeight>
473.439

>  <ModifiedDate>
2011-09-06

>  <Parent>


>  <OneLetterCode>


>  <SubcomponentList>


>  <AmbiguousFlag>
N

>  <InChI>
InChI=1S/C20H23N7O7/c21-20-25-16-15(18(32)26-20)27(9-28)12(8-23-16)7-22-11-3-1-10(2-4-11)17(31)24-13(19(33)34)5-6-14(29)30/h1-4,9,12-13,22H,5-8H2,(H,24,31)(H,29,30)(H,33,34)(H4,21,23,25,26,32)/t12-,13-/m0/s1

>  <InChIKey>
VVIAGPKUTFNRDU-STQMWFEESA-N

>  <SMILES>
c1cc(ccc1C(=O)NC(CCC(=O)O)C(=O)O)NCC2CNC3=C(N2C=O)C(=O)NC(=N3)N

$$$$
