@<TRIPOS>MOLECULE
ligand.pdb
 57 57 0 0 0
SMALL
GASTEIGER

@<TRIPOS>ATOM
      1 C          -4.7700   -8.9820   -4.5300 C.ar    1  UNL1        0.1222
      2 C          -5.2170   -8.3750   -3.3210 C.ar    1  UNL1       -0.0193
      3 C          -6.3910   -7.5750   -3.3220 C.ar    1  UNL1       -0.0152
      4 C          -7.1060   -7.3630   -4.5300 C.ar    1  UNL1        0.1205
      5 C          -6.6500   -7.9520   -5.7400 C.ar    1  UNL1       -0.0165
      6 C          -5.4780   -8.7560   -5.7430 C.ar    1  UNL1       -0.0163
      7 O          -3.6000   -9.8100   -4.5350 O.3     1  UNL1       -0.4886
      8 C          -3.8900  -11.0770   -3.9260 C.3     1  UNL1        0.1199
      9 C          -4.7670  -11.9240   -4.8580 C.3     1  UNL1        0.0985
     10 N          -4.1190  -12.1820   -5.9690 N.pl3   1  UNL1       -0.2754
     11 C          -3.1480  -13.0750   -6.0100 C.cat   1  UNL1        0.3411
     12 N          -2.7630  -13.7640   -4.8930 N.pl3   1  UNL1       -0.2919
     13 N          -2.5160  -13.3140   -7.1880 N.pl3   1  UNL1       -0.2919
     14 C          -4.4430   -8.5910   -2.0040 C.3     1  UNL1       -0.0636
     15 N          -2.9840   -8.5050   -2.2610 N.3     1  UNL1        0.3818
     16 C          -2.2810   -8.0810   -1.0270 C.3     1  UNL1       -0.0929
     17 C          -2.3020   -9.2250   -0.0060 C.3     1  UNL1       -0.0656
     18 C          -0.8940   -9.4470    0.5570 C.3     1  UNL1       -0.0239
     19 C          -0.2110  -10.5850   -0.2070 C.3     1  UNL1        0.0645
     20 N           0.9700  -10.8240    0.3120 N.pl3   1  UNL1       -0.2787
     21 C           1.1030  -11.4710    1.4540 C.cat   1  UNL1        0.3410
     22 N           2.3490  -11.7250    1.9300 N.pl3   1  UNL1       -0.2919
     23 N           0.0170  -11.9000    2.1630 N.pl3   1  UNL1       -0.2919
     24 O          -8.2850   -6.5540   -4.5290 O.3     1  UNL1       -0.4951
     25 C          -7.9300   -5.1900   -4.2840 C.3     1  UNL1        0.0788
     26 H          -6.7390   -7.1250   -2.4040 H       1  UNL1        0.0657
     27 H          -7.1940   -7.7890   -6.6560 H       1  UNL1        0.0655
     28 H          -5.1310   -9.2030   -6.6660 H       1  UNL1        0.0655
     29 H          -2.9660  -11.6010   -3.7320 H       1  UNL1        0.0728
     30 H          -4.4120  -10.9180   -2.9950 H       1  UNL1        0.0728
     31 H          -5.6740  -11.3820   -5.0880 H       1  UNL1        0.0689
     32 H          -5.0210  -12.8520   -4.3670 H       1  UNL1        0.0689
     33 H          -4.3660  -11.7070   -6.7900 H       1  UNL1        0.2579
     34 H          -3.2060  -13.6050   -4.0340 H       1  UNL1        0.2545
     35 H          -2.0390  -14.4220   -4.9530 H       1  UNL1        0.2545
     36 H          -1.7930  -13.9750   -7.2310 H       1  UNL1        0.2545
     37 H          -2.7830  -12.8270   -7.9950 H       1  UNL1        0.2545
     38 H          -4.6810   -9.5630   -1.5990 H       1  UNL1        0.0103
     39 H          -4.7300   -7.8290   -1.2940 H       1  UNL1        0.0103
     40 H          -2.8070   -7.8180   -3.0080 H       1  UNL1       -0.0855
     41 H          -2.7780   -7.2180   -0.6090 H       1  UNL1        0.0054
     42 H          -1.2590   -7.8250   -1.2670 H       1  UNL1        0.0054
     43 H          -2.9740   -8.9720    0.8010 H       1  UNL1        0.0248
     44 H          -2.6450  -10.1290   -0.4880 H       1  UNL1        0.0248
     45 H          -0.3160   -8.5420    0.4480 H       1  UNL1        0.0295
     46 H          -0.9620   -9.7070    1.6040 H       1  UNL1        0.0295
     47 H          -0.8190  -11.4760   -0.1430 H       1  UNL1        0.0655
     48 H          -0.0970  -10.3030   -1.2430 H       1  UNL1        0.0655
     49 H           1.7730  -10.5270   -0.1660 H       1  UNL1        0.2578
     50 H           2.4620  -12.2040    2.7760 H       1  UNL1        0.2545
     51 H           3.1350  -11.4300    1.4250 H       1  UNL1        0.2545
     52 H           0.1460  -12.3790    3.0080 H       1  UNL1        0.2545
     53 H          -0.8900  -11.7320    1.8330 H       1  UNL1        0.2545
     54 H          -8.8010   -4.5640   -4.4060 H       1  UNL1        0.0660
     55 H          -7.1670   -4.8860   -4.9850 H       1  UNL1        0.0660
     56 H          -7.5540   -5.0920   -3.2770 H       1  UNL1        0.0660
     57 H          -2.6320   -9.4270   -2.5540 H       1  UNL1       -0.0855
@<TRIPOS>BOND
     1     1     2   ar
     2     1     6   ar
     3     1     7    1
     4     2     3   ar
     5     2    14    1
     6     3     4   ar
     7     3    26    1
     8     4     5   ar
     9     4    24    1
    10     5     6   ar
    11     5    27    1
    12     6    28    1
    13     7     8    1
    14     8     9    1
    15     8    29    1
    16     8    30    1
    17     9    10    1
    18     9    31    1
    19     9    32    1
    20    10    11    1
    21    10    33    1
    22    11    12    2
    23    11    13    1
    24    12    34    1
    25    12    35    1
    26    13    36    1
    27    13    37    1
    28    14    15    1
    29    14    38    1
    30    14    39    1
    31    15    16    1
    32    15    40    1
    33    15    57    1
    34    16    17    1
    35    16    41    1
    36    16    42    1
    37    17    18    1
    38    17    43    1
    39    17    44    1
    40    18    19    1
    41    18    45    1
    42    18    46    1
    43    19    20    1
    44    19    47    1
    45    19    48    1
    46    20    21    1
    47    20    49    1
    48    21    22    2
    49    21    23    1
    50    22    50    1
    51    22    51    1
    52    23    52    1
    53    23    53    1
    54    24    25    1
    55    25    54    1
    56    25    55    1
    57    25    56    1
