ligand.pdb
 OpenBabel03221816333D

 60 60  0  0  0  0  0  0  0  0999 V2000
   -4.7700   -8.9820   -4.5300 C   0  0  0  0  0  0  0  0  0  0  0  0
   -5.2170   -8.3750   -3.3210 C   0  0  0  0  0  0  0  0  0  0  0  0
   -6.3910   -7.5750   -3.3220 C   0  0  0  0  0  0  0  0  0  0  0  0
   -7.1060   -7.3630   -4.5300 C   0  0  0  0  0  0  0  0  0  0  0  0
   -6.6500   -7.9520   -5.7400 C   0  0  0  0  0  0  0  0  0  0  0  0
   -5.4780   -8.7560   -5.7430 C   0  0  0  0  0  0  0  0  0  0  0  0
   -3.6000   -9.8100   -4.5350 O   0  0  0  0  0  0  0  0  0  0  0  0
   -3.8900  -11.0770   -3.9260 C   0  0  0  0  0  0  0  0  0  0  0  0
   -4.7670  -11.9240   -4.8580 C   0  0  0  0  0  0  0  0  0  0  0  0
   -4.1190  -12.1820   -5.9690 N   0  0  0  0  0  0  0  0  0  0  0  0
   -3.1480  -13.0750   -6.0100 C   0  0  0  0  0  0  0  0  0  0  0  0
   -2.7630  -13.7640   -4.8930 N   0  0  0  0  0  0  0  0  0  0  0  0
   -2.5160  -13.3140   -7.1880 N   0  0  0  0  0  0  0  0  0  0  0  0
   -4.4430   -8.5910   -2.0040 C   0  0  0  0  0  0  0  0  0  0  0  0
   -2.9840   -8.5050   -2.2610 N   0  0  0  0  0  0  0  0  0  0  0  0
   -2.2810   -8.0810   -1.0270 C   0  0  0  0  0  0  0  0  0  0  0  0
   -2.3020   -9.2250   -0.0060 C   0  0  0  0  0  0  0  0  0  0  0  0
   -0.8940   -9.4470    0.5570 C   0  0  0  0  0  0  0  0  0  0  0  0
   -0.2110  -10.5850   -0.2070 C   0  0  0  0  0  0  0  0  0  0  0  0
    0.9700  -10.8240    0.3120 N   0  0  0  0  0  0  0  0  0  0  0  0
    1.1030  -11.4710    1.4540 C   0  0  0  0  0  0  0  0  0  0  0  0
    2.3490  -11.7250    1.9300 N   0  0  0  0  0  0  0  0  0  0  0  0
    0.0170  -11.9000    2.1630 N   0  0  0  0  0  0  0  0  0  0  0  0
   -8.2850   -6.5540   -4.5290 O   0  0  0  0  0  0  0  0  0  0  0  0
   -7.9300   -5.1900   -4.2840 C   0  0  0  0  0  0  0  0  0  0  0  0
   -6.7390   -7.1250   -2.4040 H   0  0  0  0  0  0  0  0  0  0  0  0
   -7.1940   -7.7890   -6.6560 H   0  0  0  0  0  0  0  0  0  0  0  0
   -5.1310   -9.2030   -6.6660 H   0  0  0  0  0  0  0  0  0  0  0  0
   -2.9660  -11.6010   -3.7320 H   0  0  0  0  0  0  0  0  0  0  0  0
   -4.4120  -10.9180   -2.9950 H   0  0  0  0  0  0  0  0  0  0  0  0
   -5.6740  -11.3820   -5.0880 H   0  0  0  0  0  0  0  0  0  0  0  0
   -5.0210  -12.8520   -4.3670 H   0  0  0  0  0  0  0  0  0  0  0  0
   -4.3660  -11.7070   -6.7900 H   0  0  0  0  0  0  0  0  0  0  0  0
   -3.2060  -13.6050   -4.0340 H   0  0  0  0  0  0  0  0  0  0  0  0
   -2.0390  -14.4220   -4.9530 H   0  0  0  0  0  0  0  0  0  0  0  0
   -1.7930  -13.9750   -7.2310 H   0  0  0  0  0  0  0  0  0  0  0  0
   -2.7830  -12.8270   -7.9950 H   0  0  0  0  0  0  0  0  0  0  0  0
   -4.6810   -9.5630   -1.5990 H   0  0  0  0  0  0  0  0  0  0  0  0
   -4.7300   -7.8290   -1.2940 H   0  0  0  0  0  0  0  0  0  0  0  0
   -2.8070   -7.8180   -3.0080 H   0  0  0  0  0  0  0  0  0  0  0  0
   -2.7780   -7.2180   -0.6090 H   0  0  0  0  0  0  0  0  0  0  0  0
   -1.2590   -7.8250   -1.2670 H   0  0  0  0  0  0  0  0  0  0  0  0
   -2.9740   -8.9720    0.8010 H   0  0  0  0  0  0  0  0  0  0  0  0
   -2.6450  -10.1290   -0.4880 H   0  0  0  0  0  0  0  0  0  0  0  0
   -0.3160   -8.5420    0.4480 H   0  0  0  0  0  0  0  0  0  0  0  0
   -0.9620   -9.7070    1.6040 H   0  0  0  0  0  0  0  0  0  0  0  0
   -0.8190  -11.4760   -0.1430 H   0  0  0  0  0  0  0  0  0  0  0  0
   -0.0970  -10.3030   -1.2430 H   0  0  0  0  0  0  0  0  0  0  0  0
    1.7730  -10.5270   -0.1660 H   0  0  0  0  0  0  0  0  0  0  0  0
    2.4620  -12.2040    2.7760 H   0  0  0  0  0  0  0  0  0  0  0  0
    3.1350  -11.4300    1.4250 H   0  0  0  0  0  0  0  0  0  0  0  0
    0.1460  -12.3790    3.0080 H   0  0  0  0  0  0  0  0  0  0  0  0
   -0.8900  -11.7320    1.8330 H   0  0  0  0  0  0  0  0  0  0  0  0
   -8.8010   -4.5640   -4.4060 H   0  0  0  0  0  0  0  0  0  0  0  0
   -7.1670   -4.8860   -4.9850 H   0  0  0  0  0  0  0  0  0  0  0  0
   -7.5540   -5.0920   -3.2770 H   0  0  0  0  0  0  0  0  0  0  0  0
   -2.6320   -9.4270   -2.5540 H   0  0  0  0  0  0  0  0  0  0  0  0
   -3.1034  -14.4407   -5.5218 H   0  0  0  0  0  0  0  0  0  0  0  0
   -2.4717   -8.5573   -3.1415 H   0  0  0  0  0  0  0  0  0  0  0  0
    3.0688  -12.1121    2.4789 H   0  0  0  0  0  0  0  0  0  0  0  0
  1  2  2  0  0  0  0
  1  6  1  0  0  0  0
  1  7  1  0  0  0  0
  2  3  1  0  0  0  0
  2 14  1  0  0  0  0
  3  4  2  0  0  0  0
  3 26  1  0  0  0  0
  4  5  1  0  0  0  0
  4 24  1  0  0  0  0
  5  6  2  0  0  0  0
  5 27  1  0  0  0  0
  6 28  1  0  0  0  0
  7  8  1  0  0  0  0
  8  9  1  0  0  0  0
  8 29  1  0  0  0  0
  8 30  1  0  0  0  0
  9 10  1  0  0  0  0
  9 31  1  0  0  0  0
  9 32  1  0  0  0  0
 10 11  1  0  0  0  0
 10 33  1  0  0  0  0
 11 12  2  0  0  0  0
 11 13  1  0  0  0  0
 12 34  1  0  0  0  0
 12 35  1  0  0  0  0
 12 58  1  0  0  0  0
 13 36  1  0  0  0  0
 13 37  1  0  0  0  0
 14 15  1  0  0  0  0
 14 38  1  0  0  0  0
 14 39  1  0  0  0  0
 15 16  1  0  0  0  0
 15 40  1  0  0  0  0
 15 57  1  0  0  0  0
 15 59  1  0  0  0  0
 16 17  1  0  0  0  0
 16 41  1  0  0  0  0
 16 42  1  0  0  0  0
 17 18  1  0  0  0  0
 17 43  1  0  0  0  0
 17 44  1  0  0  0  0
 18 19  1  0  0  0  0
 18 45  1  0  0  0  0
 18 46  1  0  0  0  0
 19 20  1  0  0  0  0
 19 47  1  0  0  0  0
 19 48  1  0  0  0  0
 20 21  1  0  0  0  0
 20 49  1  0  0  0  0
 21 22  2  0  0  0  0
 21 23  1  0  0  0  0
 22 50  1  0  0  0  0
 22 51  1  0  0  0  0
 22 60  1  0  0  0  0
 23 52  1  0  0  0  0
 23 53  1  0  0  0  0
 24 25  1  0  0  0  0
 25 54  1  0  0  0  0
 25 55  1  0  0  0  0
 25 56  1  0  0  0  0
M  END
>  <HEADER>
HIV-1                                   18-DEC-03   1UUD

>  <TITLE>
NMR STRUCTURE OF A SYNTHETIC SMALL MOLECULE, RBT203, BOUND
2 TO HIV-1 TAR RNA

>  <COMPND>
MOL_ID: 1;
2 MOLECULE: RNA (5'-(*GP*GP*CP*AP*GP*AP*UP*CP*UP*GP*AP*GP
3  *CP*CP*UP*GP*GP*GP*AP*GP*CP*UP*CP*UP*CP*UP*GP*CP*C) -3');
4 CHAIN: B;
5 SYNONYM: HIV-1 TAR RNA;
6 OTHER_DETAILS: BULGED STEM LOOP REGION FROM 5'LTR OF HIV-1
7  MRNA-BINDING SITE FOR TRANSCRIPTIONAL ACTIVATOR PROTEIN
8  TAT.

>  <SOURCE>
MOL_ID: 1;
2 SYNTHETIC: YES;
3 ORGANISM_SCIENTIFIC: HUMAN IMMUNODEFICIENCY VIRUS 1 (CLONE
4  12);
5 ORGANISM_COMMON: HIV-1;
6 ORGANISM_TAXID: 11706;
7 OTHER_DETAILS: 29 NUCLEOTIDE SEQUENCE COMPRISING PRIMARY
8  BINDING SITE OF HIV-1 TAT, SYNTHESIZED USING T7 RNA
9  POLYMERASE OFF OF A DNA TEMPLATE

>  <KEYWDS>
HIV-1, TAR RNA, DRUG DESIGN, LIGAND-RNA INTERACTION, RNA
2 BULGE

>  <EXPDTA>
SOLUTION NMR

>  <AUTHOR>
B.DAVIS,M.AFSHAR,G.VARANI,J.KARN,A.I.H.MURCHIE,G.LENTZEN,
2 M.J.DRYSDALE,A.J.POTTER,J.BOWER,F.ABOUL-ELA

>  <REVDAT>
2   24-FEB-09 1UUD    1       VERSN
1   15-MAR-04 1UUD    0

>  <JRNL>
AUTH   B.DAVIS,M.AFSHAR,G.VARANI,A.I.H.MURCHIE,J.KARN,
AUTH 2 G.LENTZEN,M.J.DRYSDALE,J.BOWER,A.J.POTTER,
AUTH 3 F.ABOUL-ELA
TITL   RATIONAL DESIGN OF INHIBITORS OF HIV-1 TAR RNA
TITL 2 THROUGH THE STABILISATION OF ELECTROSTATIC "HOT
TITL 3 SPOTS"
REF    J.MOL.BIOL.                   V. 336   343 2004
REFN                   ISSN 0022-2836
PMID   14757049
DOI    10.1016/J.JMB.2003.12.046

>  <REMARK>
1
1 REFERENCE 1
1  AUTH   F.ABOUL-ELA,J.JKARN,G.VARANI
1  TITL   THE STRUCTURE OF THE HUMAN IMMUNODEFICIENCY VIRUS
1  TITL 2 RECOGNITION BY TAT PROTEIN
1  REF    J.MOL.BIOL.                   V. 253   313 1995
1  REFN                   ISSN 0022-2836
1  PMID   7563092
1  DOI    10.1006/JMBI.1995.0555
2
2 RESOLUTION. NOT APPLICABLE.
3
3 REFINEMENT.
3   PROGRAM     : X-PLOR
3   AUTHORS     : BRUNGER
3
3  OTHER REFINEMENT REMARKS: REFINEMENT INCLUDED A NUMBER OF
3  MODELLING CONSTRAINTS BASED UPON PREVIOUSLY PUBLISHED DATA, AS
3  WELL AS FINAL GENTLE REFINEMENT STEP USING CHARMM. DETAILS CAN
3  BE FOUND IN THE JOURNAL CITATION ABOVE
4
4 1UUD COMPLIES WITH FORMAT V. 3.15, 01-DEC-08
100
100 THIS ENTRY HAS BEEN PROCESSED BY PDBE ON 19-DEC-03.
100 THE PDBE ID CODE IS EBI-14236.
210
210 EXPERIMENTAL DETAILS
210  EXPERIMENT TYPE                : NMR
210  TEMPERATURE           (KELVIN) : 298
210  PH                             : 6.1
210  IONIC STRENGTH                 : 20 MM
210  PRESSURE                       : 1 ATM
210  SAMPLE CONTENTS                : NULL
210
210  NMR EXPERIMENTS CONDUCTED      : NOESY, TOCSY, COSY, ROESY
210  SPECTROMETER FIELD STRENGTH    : 800; 600; 600; 500
210  SPECTROMETER MODEL             : DRX800; DRX600; DMX600;
210                                   AMX500
210  SPECTROMETER MANUFACTURER      : BRUKER
210
210  STRUCTURE DETERMINATION.
210   SOFTWARE USED                 : XPLOR/CHARMM
210   METHOD USED                   : NOE-RESTRAINED DYNAMICS
210
210 CONFORMERS, NUMBER CALCULATED   : 50
210 CONFORMERS, NUMBER SUBMITTED    : 1
210 CONFORMERS, SELECTION CRITERIA  : LEAST RESTRRAINT
210                                   VIOLATION ENERGY
210
210 BEST REPRESENTATIVE CONFORMER IN THIS ENSEMBLE : 1
210
210 REMARK: THE STRUCTURE WAS DETERMINED USING HOMONUCLEAR NMR
210 SPECTROSCOPY, DETECTING INTERMOLECULAR NOES. RNA
210 INTRAMOLECULAR RESTRAINTS WERE AS IN ABOUL-ELA ET AL, JMB
210 1995, AS THE NMR SPECTRA FOR THE RNA AS ABOUND BY THE
210 LIGAND RBT203 SHOWED SIMILAR NOE AND CHEMICAL SHIFT
210 PATTERNS TO THE LATTER
215
215 NMR STUDY
215 THE COORDINATES IN THIS ENTRY WERE GENERATED FROM SOLUTION
215 NMR DATA.  PROTEIN DATA BANK CONVENTIONS REQUIRE THAT
215 CRYST1 AND SCALE RECORDS BE INCLUDED, BUT THE VALUES ON
215 THESE RECORDS ARE MEANINGLESS.
500
500 GEOMETRY AND STEREOCHEMISTRY
500 SUBTOPIC: COVALENT BOND ANGLES
500
500 THE STEREOCHEMICAL PARAMETERS OF THE FOLLOWING RESIDUES
500 HAVE VALUES WHICH DEVIATE FROM EXPECTED VALUES BY MORE
500 THAN 6*RMSD (M=MODEL NUMBER; RES=RESIDUE NAME; C=CHAIN
500 IDENTIFIER; SSEQ=SEQUENCE NUMBER; I=INSERTION CODE).
500
500 STANDARD TABLE:
500 FORMAT: (10X,I3,1X,A3,1X,A1,I4,A1,3(1X,A4,2X),12X,F5.1)
500
500 EXPECTED VALUES PROTEIN: ENGH AND HUBER, 1999
500 EXPECTED VALUES NUCLEIC ACID: CLOWNEY ET AL 1996
500
500  M RES CSSEQI ATM1   ATM2   ATM3
500      G B  17   C8  -  N9  -  C4  ANGL. DEV. =  -2.7 DEGREES
500      G B  17   N7  -  C8  -  N9  ANGL. DEV. =   4.6 DEGREES
500      G B  18   C8  -  N9  -  C4  ANGL. DEV. =  -2.7 DEGREES
500      G B  18   N7  -  C8  -  N9  ANGL. DEV. =   4.6 DEGREES
500      A B  20   N7  -  C8  -  N9  ANGL. DEV. =   3.7 DEGREES
500      G B  21   C8  -  N9  -  C4  ANGL. DEV. =  -2.7 DEGREES
500      G B  21   N7  -  C8  -  N9  ANGL. DEV. =   4.5 DEGREES
500      A B  22   N7  -  C8  -  N9  ANGL. DEV. =   3.7 DEGREES
500      G B  26   C8  -  N9  -  C4  ANGL. DEV. =  -2.7 DEGREES
500      G B  26   N7  -  C8  -  N9  ANGL. DEV. =   4.5 DEGREES
500      A B  27   N7  -  C8  -  N9  ANGL. DEV. =   3.7 DEGREES
500      G B  28   C8  -  N9  -  C4  ANGL. DEV. =  -2.6 DEGREES
500      G B  28   N7  -  C8  -  N9  ANGL. DEV. =   4.5 DEGREES
500      G B  32   C8  -  N9  -  C4  ANGL. DEV. =  -2.6 DEGREES
500      G B  32   N7  -  C8  -  N9  ANGL. DEV. =   4.5 DEGREES
500      G B  33   C8  -  N9  -  C4  ANGL. DEV. =  -2.7 DEGREES
500      G B  33   N7  -  C8  -  N9  ANGL. DEV. =   4.6 DEGREES
500      G B  34   C8  -  N9  -  C4  ANGL. DEV. =  -2.7 DEGREES
500      G B  34   N7  -  C8  -  N9  ANGL. DEV. =   4.6 DEGREES
500      A B  35   N7  -  C8  -  N9  ANGL. DEV. =   3.8 DEGREES
500      G B  36   C8  -  N9  -  C4  ANGL. DEV. =  -2.6 DEGREES
500      G B  36   N7  -  C8  -  N9  ANGL. DEV. =   4.7 DEGREES
500      G B  43   C8  -  N9  -  C4  ANGL. DEV. =  -2.6 DEGREES
500      G B  43   N7  -  C8  -  N9  ANGL. DEV. =   4.5 DEGREES
500
500 REMARK: NULL
800
800 SITE
800 SITE_IDENTIFIER: AC1
800 EVIDENCE_CODE: SOFTWARE
800 SITE_DESCRIPTION: BINDING SITE FOR RESIDUE P14 B1046
900
900 RELATED ENTRIES
900 RELATED ID: 1UTS   RELATED DB: PDB
900  DESIGNED HIV-1 TAR BINDING LIGAND
900 RELATED ID: 1UUI   RELATED DB: PDB
900  DESIGNED HIV-1 TAR BINDING LIGAND

>  <DBREF>
1UUD B   17    45  PDB    1UUD     1UUD            17     45

>  <SEQRES>
1 B   29    G   G   C   A   G   A   U   C   U   G   A   G   C
2 B   29    C   U   G   G   G   A   G   C   U   C   U   C   U
3 B   29    G   C   C

>  <HET>
P14  B1046      57

>  <HETNAM>
P14 N-[2-(2-{[(4-{[AMINO(IMINO)METHYL]AMINO}
2 P14  BUTYL)AMINO]METHYL}-4-METHOXYPHENOXY)ETHYL]
3 P14  GUANIDINE

>  <HETSYN>
P14 RBT203 INHIBITOR

>  <FORMUL>
2  P14    C16 H31 N7 O2

>  <SITE>
1 AC1  9   A B  22    U B  23    G B  26    A B  27
2 AC1  9   G B  28    A B  35    G B  36    C B  37
3 AC1  9   U B  38

>  <ORIGX1>
1.000000  0.000000  0.000000        0.00000

>  <ORIGX2>
0.000000  1.000000  0.000000        0.00000

>  <ORIGX3>
0.000000  0.000000  1.000000        0.00000

>  <SCALE1>
1.000000  0.000000  0.000000        0.00000

>  <SCALE2>
0.000000  1.000000  0.000000        0.00000

>  <SCALE3>
0.000000  0.000000  1.000000        0.00000

>  <MDLTYP>
MINIMIZED AVERAGE

$$$$
