REMARK  12 active torsions:
REMARK  status: ('A' for Active; 'I' for Inactive)
REMARK    1  A    between atoms: C_1  and  O_7 
REMARK    2  A    between atoms: C_2  and  C_14 
REMARK    3  A    between atoms: C_4  and  O_24 
REMARK    4  A    between atoms: O_7  and  C_8 
REMARK    5  A    between atoms: C_8  and  C_9 
REMARK    6  A    between atoms: C_9  and  N_10 
REMARK       I    between atoms: N_10  and  C_11 
REMARK       I    between atoms: C_11  and  N_12 
REMARK       I    between atoms: C_11  and  N_13 
REMARK    7  A    between atoms: C_14  and  N_15 
REMARK    8  A    between atoms: N_15  and  C_16 
REMARK    9  A    between atoms: C_16  and  C_17 
REMARK   10  A    between atoms: C_17  and  C_18 
REMARK   11  A    between atoms: C_18  and  C_19 
REMARK   12  A    between atoms: C_19  and  N_20 
REMARK       I    between atoms: N_20  and  C_21 
REMARK       I    between atoms: C_21  and  N_22 
ROOT
ATOM      1  C   UNL d   1      -4.770  -8.982  -4.530  0.00  0.00     0.076 A 
ATOM      2  C   UNL d   1      -5.217  -8.375  -3.321  0.00  0.00     0.003 A 
ATOM      3  C   UNL d   1      -6.391  -7.575  -3.322  0.00  0.00     0.048 A 
ATOM      4  C   UNL d   1      -7.106  -7.363  -4.530  0.00  0.00     0.069 A 
ATOM      5  C   UNL d   1      -6.650  -7.952  -5.740  0.00  0.00     0.039 A 
ATOM      6  C   UNL d   1      -5.478  -8.756  -5.743  0.00  0.00     0.040 A 
ENDROOT
BRANCH   2   7
ATOM      7  C   UNL d   1      -4.443  -8.591  -2.004  0.00  0.00     0.273 C 
BRANCH   7   8
ATOM      8  N   UNL d   1      -2.984  -8.505  -2.261  0.00  0.00    -0.071 N 
ATOM      9  H   UNL d   1      -2.807  -7.818  -3.008  0.00  0.00     0.277 HD
ATOM     10  H   UNL d   1      -2.632  -9.427  -2.554  0.00  0.00     0.277 HD
BRANCH   8  11
ATOM     11  C   UNL d   1      -2.281  -8.081  -1.027  0.00  0.00     0.232 C 
BRANCH  11  12
ATOM     12  C   UNL d   1      -2.302  -9.225  -0.006  0.00  0.00     0.029 C 
BRANCH  12  13
ATOM     13  C   UNL d   1      -0.894  -9.447   0.557  0.00  0.00     0.022 C 
BRANCH  13  14
ATOM     14  C   UNL d   1      -0.211 -10.585  -0.207  0.00  0.00     0.138 C 
BRANCH  14  15
ATOM     15  N   UNL d   1       0.970 -10.824   0.312  0.00  0.00    -0.227 N 
ATOM     16  C   UNL d   1       1.103 -11.471   1.454  0.00  0.00     0.665 C 
ATOM     17  N   UNL d   1       2.349 -11.725   1.930  0.00  0.00    -0.235 N 
ATOM     18  N   UNL d   1       0.017 -11.900   2.163  0.00  0.00    -0.235 N 
ATOM     19  H   UNL d   1       2.462 -12.204   2.776  0.00  0.00     0.174 HD
ATOM     20  H   UNL d   1       3.135 -11.430   1.425  0.00  0.00     0.174 HD
ATOM     21  H   UNL d   1       0.146 -12.379   3.008  0.00  0.00     0.174 HD
ATOM     22  H   UNL d   1      -0.890 -11.732   1.833  0.00  0.00     0.174 HD
ATOM     23  H   UNL d   1       1.773 -10.527  -0.166  0.00  0.00     0.177 HD
ENDBRANCH  14  15
ENDBRANCH  13  14
ENDBRANCH  12  13
ENDBRANCH  11  12
ENDBRANCH   8  11
ENDBRANCH   7   8
ENDBRANCH   2   7
BRANCH   1  24
ATOM     24  O   UNL d   1      -3.600  -9.810  -4.535  0.00  0.00    -0.349 OA
BRANCH  24  25
ATOM     25  C   UNL d   1      -3.890 -11.077  -3.926  0.00  0.00     0.196 C 
BRANCH  25  26
ATOM     26  C   UNL d   1      -4.767 -11.924  -4.858  0.00  0.00     0.164 C 
BRANCH  26  27
ATOM     27  N   UNL d   1      -4.119 -12.182  -5.969  0.00  0.00    -0.225 N 
ATOM     28  C   UNL d   1      -3.148 -13.075  -6.010  0.00  0.00     0.665 C 
ATOM     29  N   UNL d   1      -2.763 -13.764  -4.893  0.00  0.00    -0.235 N 
ATOM     30  N   UNL d   1      -2.516 -13.314  -7.188  0.00  0.00    -0.235 N 
ATOM     31  H   UNL d   1      -3.206 -13.605  -4.034  0.00  0.00     0.174 HD
ATOM     32  H   UNL d   1      -2.039 -14.422  -4.953  0.00  0.00     0.174 HD
ATOM     33  H   UNL d   1      -1.793 -13.975  -7.231  0.00  0.00     0.174 HD
ATOM     34  H   UNL d   1      -2.783 -12.827  -7.995  0.00  0.00     0.174 HD
ATOM     35  H   UNL d   1      -4.366 -11.707  -6.790  0.00  0.00     0.177 HD
ENDBRANCH  26  27
ENDBRANCH  25  26
ENDBRANCH  24  25
ENDBRANCH   1  24
BRANCH   4  36
ATOM     36  O   UNL d   1      -8.285  -6.554  -4.529  0.00  0.00    -0.356 OA
ATOM     37  C   UNL d   1      -7.930  -5.190  -4.284  0.00  0.00     0.210 C 
ENDBRANCH   4  36
TORSDOF 12
