@<TRIPOS>MOLECULE
2EEU_HPA_A_90
 14 15 0 0 0
SMALL
GASTEIGER

@<TRIPOS>ATOM
      1 N           2.0665    0.6792   -0.0010 N.ar    1  UNL1       -0.3116
      2 H           2.9572    1.1527   -0.0010 H       1  UNL1        0.1698
      3 C           1.9957   -0.6973   -0.0022 C.ar    1  UNL1        0.0985
      4 N           0.9196   -1.4175   -0.0023 N.ar    1  UNL1       -0.2163
      5 C          -0.2548   -0.6608   -0.0009 C.ar    1  UNL1        0.1844
      6 C          -0.2403    0.7065    0.0004 C.ar    1  UNL1        0.1501
      7 C           0.9480    1.4756    0.0004 C.ar    1  UNL1        0.2770
      8 O           0.9981    2.6991    0.0016 O.2     1  UNL1       -0.2655
      9 N          -1.5482    1.0893    0.0014 N.ar    1  UNL1       -0.3389
     10 H          -1.8967    2.0390    0.0025 H       1  UNL1        0.1670
     11 C          -2.2930   -0.0606    0.0008 C.ar    1  UNL1        0.0963
     12 N          -1.5319   -1.1359   -0.0007 N.ar    1  UNL1       -0.2164
     13 H           2.9873   -1.1782   -0.0033 H       1  UNL1        0.1028
     14 H          -3.3751   -0.0516    0.0014 H       1  UNL1        0.1027
@<TRIPOS>BOND
     1     1     2    1
     2     1     3   ar
     3     1     7   ar
     4     3     4   ar
     5     3    13    1
     6     4     5   ar
     7     5     6   ar
     8     5    12   ar
     9     6     7   ar
    10     6     9   ar
    11     7     8    2
    12     9    10    1
    13     9    11   ar
    14    11    12   ar
    15    11    14    1
