2EEU_HPA_A_90
 OpenBabel03221817193D

 14 15  0  0  0  0  0  0  0  0999 V2000
    2.0665    0.6792   -0.0010 N   0  0  0  0  0  0  0  0  0  0  0  0
    2.9572    1.1527   -0.0010 H   0  0  0  0  0  0  0  0  0  0  0  0
    1.9957   -0.6973   -0.0022 C   0  0  0  0  0  0  0  0  0  0  0  0
    0.9196   -1.4175   -0.0023 N   0  0  0  0  0  0  0  0  0  0  0  0
   -0.2548   -0.6608   -0.0009 C   0  0  0  0  0  0  0  0  0  0  0  0
   -0.2403    0.7065    0.0004 C   0  0  0  0  0  0  0  0  0  0  0  0
    0.9480    1.4756    0.0004 C   0  0  0  0  0  0  0  0  0  0  0  0
    0.9981    2.6991    0.0016 O   0  0  0  0  0  0  0  0  0  0  0  0
   -1.5482    1.0893    0.0014 N   0  0  0  0  0  0  0  0  0  0  0  0
   -1.8967    2.0390    0.0025 H   0  0  0  0  0  0  0  0  0  0  0  0
   -2.2930   -0.0606    0.0008 C   0  0  0  0  0  0  0  0  0  0  0  0
   -1.5319   -1.1359   -0.0007 N   0  0  0  0  0  0  0  0  0  0  0  0
    2.9873   -1.1782   -0.0033 H   0  0  0  0  0  0  0  0  0  0  0  0
   -3.3751   -0.0516    0.0014 H   0  0  0  0  0  0  0  0  0  0  0  0
  1  2  1  0  0  0  0
  1  3  1  0  0  0  0
  1  7  1  0  0  0  0
  3  4  2  0  0  0  0
  3 13  1  0  0  0  0
  4  5  1  0  0  0  0
  5  6  2  0  0  0  0
  5 12  1  0  0  0  0
  6  7  1  0  0  0  0
  6  9  1  0  0  0  0
  7  8  2  0  0  0  0
  9 10  1  0  0  0  0
  9 11  1  0  0  0  0
 11 12  2  0  0  0  0
 11 14  1  0  0  0  0
M  END
$$$$
