@<TRIPOS>MOLECULE
2ET8_XXX_B_51
 48 49 0 0 0
SMALL
GASTEIGER

@<TRIPOS>ATOM
      1 O           4.1178    0.3401    1.3435 O.3     1  UNL1       -0.3866
      2 C           3.1342   -0.0036    0.3433 C.3     1  UNL1        0.1101
      3 H           2.1712   -0.0145    0.8668 H       1  UNL1        0.0646
      4 C           3.5195   -1.4159   -0.1065 C.3     1  UNL1        0.0986
      5 H           4.5632   -1.4145   -0.4486 H       1  UNL1        0.0635
      6 O           3.4736   -2.3002    1.0258 O.3     1  UNL1       -0.3876
      7 C           2.5947   -1.9399   -1.2108 C.3     1  UNL1        0.0351
      8 H           1.5755   -2.0330   -0.8154 H       1  UNL1        0.0485
      9 N           3.0106   -3.2880   -1.6334 N.3     1  UNL1       -0.3250
     10 C           2.5943   -0.9847   -2.4040 C.3     1  UNL1       -0.0175
     11 C           2.1884    0.4371   -1.9841 C.3     1  UNL1        0.0355
     12 H           1.1501    0.4256   -1.6299 H       1  UNL1        0.0485
     13 N           2.2123    1.3107   -3.1753 N.3     1  UNL1       -0.3250
     14 C           3.0862    0.9962   -0.8373 C.3     1  UNL1        0.1051
     15 H           4.0999    1.1478   -1.2287 H       1  UNL1        0.0639
     16 O           2.5504    2.2841   -0.4529 O.3     1  UNL1       -0.3422
     17 C           3.3031    2.9915    0.5365 C.3     1  UNL1        0.1776
     18 H           3.2821    2.4293    1.4722 H       1  UNL1        0.0927
     19 O           4.6734    3.1526    0.1449 O.3     1  UNL1       -0.3425
     20 C           4.8284    4.0146   -0.9999 C.3     1  UNL1        0.1022
     21 H           4.2748    3.5968   -1.8518 H       1  UNL1        0.0636
     22 C           6.3192    4.0599   -1.3897 C.3     1  UNL1        0.0222
     23 N           6.8085    2.7304   -1.7822 N.3     1  UNL1       -0.3276
     24 C           4.2984    5.4212   -0.6836 C.3     1  UNL1        0.1100
     25 H           4.8544    5.8556    0.1565 H       1  UNL1        0.0646
     26 O           4.4434    6.3410   -1.7776 O.3     1  UNL1       -0.3866
     27 C           2.8172    5.3311   -0.2991 C.3     1  UNL1        0.1033
     28 H           2.2229    5.0191   -1.1664 H       1  UNL1        0.0637
     29 O           2.3339    6.6319    0.0785 O.3     1  UNL1       -0.3874
     30 C           2.6400    4.3545    0.8737 C.3     1  UNL1        0.0853
     31 H           3.1650    4.7797    1.7388 H       1  UNL1        0.0535
     32 N           1.2157    4.2353    1.2653 N.3     1  UNL1       -0.3211
     33 H           4.8313    0.8457    0.9094 H       1  UNL1        0.2100
     34 H           3.8123   -1.7704    1.7767 H       1  UNL1        0.2100
     35 H           3.0400   -3.8605   -0.7811 H       1  UNL1        0.1185
     36 H           3.9814   -3.2674   -1.9465 H       1  UNL1        0.1185
     37 H           1.9027   -1.3591   -3.1709 H       1  UNL1        0.0297
     38 H           3.5926   -0.9645   -2.8635 H       1  UNL1        0.0297
     39 H           1.5637    0.9441   -3.8736 H       1  UNL1        0.1185
     40 H           3.1336    1.2851   -3.6104 H       1  UNL1        0.1185
     41 H           6.9189    4.4112   -0.5428 H       1  UNL1        0.0448
     42 H           6.4760    4.7455   -2.2287 H       1  UNL1        0.0448
     43 H           6.7513    2.1251   -0.9634 H       1  UNL1        0.1183
     44 H           7.8004    2.8005   -2.0110 H       1  UNL1        0.1183
     45 H           4.3169    5.8535   -2.6119 H       1  UNL1        0.2100
     46 H           2.7251    7.2546   -0.5649 H       1  UNL1        0.2100
     47 H           0.7202    3.7615    0.5072 H       1  UNL1        0.1187
     48 H           0.8360    5.1864    1.2875 H       1  UNL1        0.1187
@<TRIPOS>BOND
     1     1    33    1
     2     2     4    1
     3     2     3    1
     4     2     1    1
     5     4     5    1
     6     4     6    1
     7     4     7    1
     8     6    34    1
     9     7     8    1
    10     7     9    1
    11     7    10    1
    12     9    35    1
    13     9    36    1
    14    10    11    1
    15    10    37    1
    16    10    38    1
    17    11    12    1
    18    11    13    1
    19    11    14    1
    20    13    39    1
    21    13    40    1
    22    14     2    1
    23    14    16    1
    24    14    15    1
    25    16    17    1
    26    17    18    1
    27    17    19    1
    28    17    30    1
    29    19    20    1
    30    20    21    1
    31    20    22    1
    32    20    24    1
    33    22    23    1
    34    22    41    1
    35    22    42    1
    36    23    43    1
    37    23    44    1
    38    24    27    1
    39    24    26    1
    40    24    25    1
    41    26    45    1
    42    27    28    1
    43    27    29    1
    44    27    30    1
    45    29    46    1
    46    30    32    1
    47    30    31    1
    48    32    47    1
    49    32    48    1
