2ET8_XXX_B_51
 OpenBabel03221817213D

 48 49  0  0  1  0  0  0  0  0999 V2000
    4.1178    0.3401    1.3435 O   0  0  0  0  0  0  0  0  0  0  0  0
    3.1342   -0.0036    0.3433 C   0  0  2  0  0  0  0  0  0  0  0  0
    2.1712   -0.0145    0.8668 H   0  0  0  0  0  0  0  0  0  0  0  0
    3.5195   -1.4159   -0.1065 C   0  0  1  0  0  0  0  0  0  0  0  0
    4.5632   -1.4145   -0.4486 H   0  0  0  0  0  0  0  0  0  0  0  0
    3.4736   -2.3002    1.0258 O   0  0  0  0  0  0  0  0  0  0  0  0
    2.5947   -1.9399   -1.2108 C   0  0  2  0  0  0  0  0  0  0  0  0
    1.5755   -2.0330   -0.8154 H   0  0  0  0  0  0  0  0  0  0  0  0
    3.0106   -3.2880   -1.6334 N   0  0  0  0  0  0  0  0  0  0  0  0
    2.5943   -0.9847   -2.4040 C   0  0  0  0  0  0  0  0  0  0  0  0
    2.1884    0.4371   -1.9841 C   0  0  2  0  0  0  0  0  0  0  0  0
    1.1501    0.4256   -1.6299 H   0  0  0  0  0  0  0  0  0  0  0  0
    2.2123    1.3107   -3.1753 N   0  0  0  0  0  0  0  0  0  0  0  0
    3.0862    0.9962   -0.8373 C   0  0  1  0  0  0  0  0  0  0  0  0
    4.0999    1.1478   -1.2287 H   0  0  0  0  0  0  0  0  0  0  0  0
    2.5504    2.2841   -0.4529 O   0  0  0  0  0  0  0  0  0  0  0  0
    3.3031    2.9915    0.5365 C   0  0  1  0  0  0  0  0  0  0  0  0
    3.2821    2.4293    1.4722 H   0  0  0  0  0  0  0  0  0  0  0  0
    4.6734    3.1526    0.1449 O   0  0  0  0  0  0  0  0  0  0  0  0
    4.8284    4.0146   -0.9999 C   0  0  2  0  0  0  0  0  0  0  0  0
    4.2748    3.5968   -1.8518 H   0  0  0  0  0  0  0  0  0  0  0  0
    6.3192    4.0599   -1.3897 C   0  0  0  0  0  0  0  0  0  0  0  0
    6.8085    2.7304   -1.7822 N   0  0  0  0  0  0  0  0  0  0  0  0
    4.2984    5.4212   -0.6836 C   0  0  1  0  0  0  0  0  0  0  0  0
    4.8544    5.8556    0.1565 H   0  0  0  0  0  0  0  0  0  0  0  0
    4.4434    6.3410   -1.7776 O   0  0  0  0  0  0  0  0  0  0  0  0
    2.8172    5.3311   -0.2991 C   0  0  2  0  0  0  0  0  0  0  0  0
    2.2229    5.0191   -1.1664 H   0  0  0  0  0  0  0  0  0  0  0  0
    2.3339    6.6319    0.0785 O   0  0  0  0  0  0  0  0  0  0  0  0
    2.6400    4.3545    0.8737 C   0  0  1  0  0  0  0  0  0  0  0  0
    3.1650    4.7797    1.7388 H   0  0  0  0  0  0  0  0  0  0  0  0
    1.2157    4.2353    1.2653 N   0  0  0  0  0  0  0  0  0  0  0  0
    4.8313    0.8457    0.9094 H   0  0  0  0  0  0  0  0  0  0  0  0
    3.8123   -1.7704    1.7767 H   0  0  0  0  0  0  0  0  0  0  0  0
    3.0400   -3.8605   -0.7811 H   0  0  0  0  0  0  0  0  0  0  0  0
    3.9814   -3.2674   -1.9465 H   0  0  0  0  0  0  0  0  0  0  0  0
    1.9027   -1.3591   -3.1709 H   0  0  0  0  0  0  0  0  0  0  0  0
    3.5926   -0.9645   -2.8635 H   0  0  0  0  0  0  0  0  0  0  0  0
    1.5637    0.9441   -3.8736 H   0  0  0  0  0  0  0  0  0  0  0  0
    3.1336    1.2851   -3.6104 H   0  0  0  0  0  0  0  0  0  0  0  0
    6.9189    4.4112   -0.5428 H   0  0  0  0  0  0  0  0  0  0  0  0
    6.4760    4.7455   -2.2287 H   0  0  0  0  0  0  0  0  0  0  0  0
    6.7513    2.1251   -0.9634 H   0  0  0  0  0  0  0  0  0  0  0  0
    7.8004    2.8005   -2.0110 H   0  0  0  0  0  0  0  0  0  0  0  0
    4.3169    5.8535   -2.6119 H   0  0  0  0  0  0  0  0  0  0  0  0
    2.7251    7.2546   -0.5649 H   0  0  0  0  0  0  0  0  0  0  0  0
    0.7202    3.7615    0.5072 H   0  0  0  0  0  0  0  0  0  0  0  0
    0.8360    5.1864    1.2875 H   0  0  0  0  0  0  0  0  0  0  0  0
  1 33  1  0  0  0  0
  2  4  1  6  0  0  0
  2  3  1  0  0  0  0
  2  1  1  0  0  0  0
  4  5  1  0  0  0  0
  4  6  1  0  0  0  0
  4  7  1  6  0  0  0
  6 34  1  0  0  0  0
  7  8  1  1  0  0  0
  7  9  1  0  0  0  0
  7 10  1  0  0  0  0
  9 35  1  0  0  0  0
  9 36  1  0  0  0  0
 10 11  1  0  0  0  0
 10 37  1  0  0  0  0
 10 38  1  0  0  0  0
 11 12  1  0  0  0  0
 11 13  1  0  0  0  0
 11 14  1  1  0  0  0
 13 39  1  0  0  0  0
 13 40  1  0  0  0  0
 14  2  1  1  0  0  0
 14 16  1  0  0  0  0
 14 15  1  0  0  0  0
 16 17  1  0  0  0  0
 17 18  1  0  0  0  0
 17 19  1  0  0  0  0
 17 30  1  1  0  0  0
 19 20  1  0  0  0  0
 20 21  1  0  0  0  0
 20 22  1  0  0  0  0
 20 24  1  1  0  0  0
 22 23  1  0  0  0  0
 22 41  1  0  0  0  0
 22 42  1  0  0  0  0
 23 43  1  0  0  0  0
 23 44  1  0  0  0  0
 24 27  1  1  0  0  0
 24 26  1  0  0  0  0
 24 25  1  0  0  0  0
 26 45  1  0  0  0  0
 27 28  1  0  0  0  0
 27 29  1  0  0  0  0
 27 30  1  1  0  0  0
 29 46  1  0  0  0  0
 30 32  1  0  0  0  0
 30 31  1  1  0  0  0
 32 47  1  0  0  0  0
 32 48  1  0  0  0  0
M  END
$$$$
