REMARK  11 active torsions:
REMARK  status: ('A' for Active; 'I' for Inactive)
REMARK    1  A    between atoms: C_2  and  O_1 
REMARK    2  A    between atoms: C_3  and  O_4 
REMARK    3  A    between atoms: C_5  and  N_6 
REMARK    4  A    between atoms: C_8  and  N_9 
REMARK    5  A    between atoms: C_10  and  O_11 
REMARK    6  A    between atoms: O_11  and  C_12 
REMARK    7  A    between atoms: C_14  and  C_15 
REMARK    8  A    between atoms: C_15  and  N_16 
REMARK    9  A    between atoms: C_17  and  O_18 
REMARK   10  A    between atoms: C_19  and  O_20 
REMARK   11  A    between atoms: C_21  and  N_22 
ROOT
ATOM      1  C   UNL d   1       3.303   2.991   0.536  0.00  0.00     0.296 C 
ATOM      2  O   UNL d   1       4.673   3.153   0.145  0.00  0.00    -0.349 OA
ATOM      3  C   UNL d   1       4.828   4.015  -1.000  0.00  0.00     0.183 C 
ATOM      4  C   UNL d   1       4.298   5.421  -0.684  0.00  0.00     0.179 C 
ATOM      5  C   UNL d   1       2.817   5.331  -0.299  0.00  0.00     0.187 C 
ATOM      6  C   UNL d   1       2.640   4.354   0.874  0.00  0.00     0.303 C 
ENDROOT
BRANCH   1   7
ATOM      7  O   UNL d   1       2.550   2.284  -0.453  0.00  0.00    -0.349 OA
BRANCH   7   8
ATOM      8  C   UNL d   1       3.086   0.996  -0.837  0.00  0.00     0.189 C 
ATOM      9  C   UNL d   1       2.188   0.437  -1.984  0.00  0.00     0.251 C 
ATOM     10  C   UNL d   1       2.594  -0.985  -2.404  0.00  0.00     0.076 C 
ATOM     11  C   UNL d   1       2.595  -1.940  -1.211  0.00  0.00     0.251 C 
ATOM     12  C   UNL d   1       3.519  -1.416  -0.106  0.00  0.00     0.182 C 
ATOM     13  C   UNL d   1       3.134  -0.004   0.343  0.00  0.00     0.180 C 
BRANCH   9  14
ATOM     14  N   UNL d   1       2.212   1.311  -3.175  0.00  0.00     0.085 N 
ATOM     15  H   UNL d   1       1.564   0.944  -3.874  0.00  0.00     0.313 HD
ATOM     16  H   UNL d   1       3.134   1.285  -3.610  0.00  0.00     0.313 HD
ENDBRANCH   9  14
BRANCH  11  17
ATOM     17  N   UNL d   1       3.011  -3.288  -1.633  0.00  0.00     0.085 N 
ATOM     18  H   UNL d   1       3.040  -3.861  -0.781  0.00  0.00     0.313 HD
ATOM     19  H   UNL d   1       3.981  -3.267  -1.946  0.00  0.00     0.313 HD
ENDBRANCH  11  17
BRANCH  12  20
ATOM     20  O   UNL d   1       3.474  -2.300   1.026  0.00  0.00    -0.391 OA
ATOM     21  H   UNL d   1       3.812  -1.770   1.777  0.00  0.00     0.210 HD
ENDBRANCH  12  20
BRANCH  13  22
ATOM     22  O   UNL d   1       4.118   0.340   1.343  0.00  0.00    -0.390 OA
ATOM     23  H   UNL d   1       4.831   0.846   0.909  0.00  0.00     0.210 HD
ENDBRANCH  13  22
ENDBRANCH   7   8
ENDBRANCH   1   7
BRANCH   6  24
ATOM     24  N   UNL d   1       1.216   4.235   1.265  0.00  0.00     0.090 N 
ATOM     25  H   UNL d   1       0.720   3.761   0.507  0.00  0.00     0.313 HD
ATOM     26  H   UNL d   1       0.836   5.186   1.288  0.00  0.00     0.313 HD
ENDBRANCH   6  24
BRANCH   3  27
ATOM     27  C   UNL d   1       6.319   4.060  -1.390  0.00  0.00     0.301 C 
BRANCH  27  28
ATOM     28  N   UNL d   1       6.809   2.730  -1.782  0.00  0.00     0.080 N 
ATOM     29  H   UNL d   1       6.751   2.125  -0.963  0.00  0.00     0.312 HD
ATOM     30  H   UNL d   1       7.800   2.800  -2.011  0.00  0.00     0.312 HD
ENDBRANCH  27  28
ENDBRANCH   3  27
BRANCH   5  31
ATOM     31  O   UNL d   1       2.334   6.632   0.079  0.00  0.00    -0.391 OA
ATOM     32  H   UNL d   1       2.725   7.255  -0.565  0.00  0.00     0.210 HD
ENDBRANCH   5  31
BRANCH   4  33
ATOM     33  O   UNL d   1       4.443   6.341  -1.778  0.00  0.00    -0.390 OA
ATOM     34  H   UNL d   1       4.317   5.854  -2.612  0.00  0.00     0.210 HD
ENDBRANCH   4  33
TORSDOF 11
