3DS7_GNG_A_120
 OpenBabel10091713573D
Coordinates from PDB:3DS7:A:120 Model:1 without hydrogens
 32 34  0  0  1  0  0  0  0  0999 V2000
   -9.7570    4.0000   -7.7300 O   0  0  0  0  0  0  0  0  0  0  0  0
  -10.5710    3.2110   -8.5300 C   0  0  0  0  0  0  0  0  0  0  0  0
  -11.9430    3.9190   -8.6720 C   0  0  1  0  0  0  0  0  0  0  0  0
  -11.9030    5.0400   -9.6060 O   0  0  0  0  0  0  0  0  0  0  0  0
  -12.1120    4.4350  -11.0000 C   0  0  1  0  0  0  0  0  0  0  0  0
  -10.9240    4.7080  -11.7340 N   0  0  0  0  0  0  0  0  0  0  0  0
   -9.8690    3.9120  -12.0620 C   0  0  0  0  0  0  0  0  0  0  0  0
   -8.9660    4.6590  -12.6780 N   0  0  0  0  0  0  0  0  0  0  0  0
   -9.4150    5.9150  -12.7510 C   0  0  0  0  0  0  0  0  0  0  0  0
  -10.6770    5.9510  -12.1660 C   0  0  0  0  0  0  0  0  0  0  0  0
  -11.4250    7.1700  -12.1160 N   0  0  0  0  0  0  0  0  0  0  0  0
  -10.8910    8.2880  -12.6480 C   0  0  0  0  0  0  0  0  0  0  0  0
   -9.6600    8.2920  -13.1780 N   0  0  0  0  0  0  0  0  0  0  0  0
   -8.8860    7.1970  -13.2720 C   0  0  0  0  0  0  0  0  0  0  0  0
   -7.7160    7.3020  -13.7160 O   0  0  0  0  0  0  0  0  0  0  0  0
  -11.6240    9.4400  -12.7280 N   0  0  0  0  0  0  0  0  0  0  0  0
  -12.4300    2.9460  -10.7930 C   0  0  0  0  0  0  0  0  0  0  0  0
  -12.9900    3.0170   -9.3180 C   0  0  2  0  0  0  0  0  0  0  0  0
  -14.2690    3.6770   -9.2970 O   0  0  0  0  0  0  0  0  0  0  0  0
   -8.8918    3.5733   -7.6287 H   0  0  0  0  0  0  0  0  0  0  0  0
  -10.7039    2.2511   -8.0763 H   0  0  0  0  0  0  0  0  0  0  0  0
  -10.1237    3.0753   -9.4925 H   0  0  0  0  0  0  0  0  0  0  0  0
  -12.1764    4.2081   -7.6686 H   0  0  0  0  0  0  0  0  0  0  0  0
  -12.9261    4.8427  -11.5621 H   0  0  0  0  0  0  0  0  0  0  0  0
   -9.7875    2.9023  -11.8648 H   0  0  0  0  0  0  0  0  0  0  0  0
  -12.3166    7.1920  -11.6992 H   0  0  0  0  0  0  0  0  0  0  0  0
  -12.5321    9.4729  -12.3493 H   0  0  0  0  0  0  0  0  0  0  0  0
  -11.2435   10.2363  -13.1643 H   0  0  0  0  0  0  0  0  0  0  0  0
  -11.5540    2.3353  -10.8608 H   0  0  0  0  0  0  0  0  0  0  0  0
  -13.0887    2.5109  -11.5153 H   0  0  0  0  0  0  0  0  0  0  0  0
  -13.1342    2.0662   -8.8488 H   0  0  0  0  0  0  0  0  0  0  0  0
  -14.1897    4.5491   -9.7141 H   0  0  0  0  0  0  0  0  0  0  0  0
  1  2  1  0  0  0  0
  1 20  1  0  0  0  0
  2  3  1  0  0  0  0
  2 21  1  0  0  0  0
  2 22  1  0  0  0  0
  3  4  1  0  0  0  0
  3 18  1  0  0  0  0
  3 23  1  1  0  0  0
  4  5  1  0  0  0  0
  5  6  1  0  0  0  0
  5 17  1  0  0  0  0
  5 24  1  6  0  0  0
  6  7  1  0  0  0  0
  6 10  1  0  0  0  0
  7  8  2  0  0  0  0
  7 25  1  0  0  0  0
  8  9  1  0  0  0  0
  9 10  2  0  0  0  0
  9 14  1  0  0  0  0
 10 11  1  0  0  0  0
 11 12  1  0  0  0  0
 11 26  1  0  0  0  0
 12 13  2  0  0  0  0
 12 16  1  0  0  0  0
 13 14  1  0  0  0  0
 14 15  2  0  0  0  0
 16 27  1  0  0  0  0
 16 28  1  0  0  0  0
 17 18  1  0  0  0  0
 17 29  1  0  0  0  0
 17 30  1  0  0  0  0
 18 19  1  0  0  0  0
 18 31  1  1  0  0  0
 19 32  1  0  0  0  0
M  END
$$$$
