3DS7_GNG_A_120
 OpenBabel10091713573D
Coordinates from PDB:3DS7:A:120 Model:1 without hydrogens
 19 21  0  0  0  0  0  0  0  0999 V2000
   -9.7570    4.0000   -7.7300 O   0  0  0  0  0  0  0  0  0  0  0  0
  -10.5710    3.2110   -8.5300 C   0  0  0  0  0  0  0  0  0  0  0  0
  -11.9430    3.9190   -8.6720 C   0  0  1  0  0  0  0  0  0  0  0  0
  -11.9030    5.0400   -9.6060 O   0  0  0  0  0  0  0  0  0  0  0  0
  -12.1120    4.4350  -11.0000 C   0  0  1  0  0  0  0  0  0  0  0  0
  -10.9240    4.7080  -11.7340 N   0  0  0  0  0  0  0  0  0  0  0  0
   -9.8690    3.9120  -12.0620 C   0  0  0  0  0  0  0  0  0  0  0  0
   -8.9660    4.6590  -12.6780 N   0  0  0  0  0  0  0  0  0  0  0  0
   -9.4150    5.9150  -12.7510 C   0  0  0  0  0  0  0  0  0  0  0  0
  -10.6770    5.9510  -12.1660 C   0  0  0  0  0  0  0  0  0  0  0  0
  -11.4250    7.1700  -12.1160 N   0  0  0  0  0  0  0  0  0  0  0  0
  -10.8910    8.2880  -12.6480 C   0  0  0  0  0  0  0  0  0  0  0  0
   -9.6600    8.2920  -13.1780 N   0  0  0  0  0  0  0  0  0  0  0  0
   -8.8860    7.1970  -13.2720 C   0  0  0  0  0  0  0  0  0  0  0  0
   -7.7160    7.3020  -13.7160 O   0  0  0  0  0  0  0  0  0  0  0  0
  -11.6240    9.4400  -12.7280 N   0  0  0  0  0  0  0  0  0  0  0  0
  -12.4300    2.9460  -10.7930 C   0  0  0  0  0  0  0  0  0  0  0  0
  -12.9900    3.0170   -9.3180 C   0  0  2  0  0  0  0  0  0  0  0  0
  -14.2690    3.6770   -9.2970 O   0  0  0  0  0  0  0  0  0  0  0  0
  1  2  1  0  0  0  0
  3  2  1  6  0  0  0
  3  4  1  0  0  0  0
  3 18  1  0  0  0  0
  4  5  1  0  0  0  0
  5  6  1  6  0  0  0
  5 17  1  0  0  0  0
  6  7  1  0  0  0  0
  6 10  1  0  0  0  0
  7  8  2  0  0  0  0
  8  9  1  0  0  0  0
  9 10  2  0  0  0  0
  9 14  1  0  0  0  0
 10 11  1  0  0  0  0
 11 12  1  0  0  0  0
 12 13  2  0  0  0  0
 12 16  1  0  0  0  0
 13 14  1  0  0  0  0
 14 15  2  0  0  0  0
 17 18  1  0  0  0  0
 18 19  1  6  0  0  0
A    1
O5'
A    2
C5'
A    3
C4'
A    4
O4'
A    5
C1'
A    6
N9
A    7
C8
A    8
N7
A    9
C5
A   10
C4
A   11
N3
A   12
C2
A   13
N1
A   14
C6
A   15
O6
A   16
N2
A   17
C2'
A   18
C3'
A   19
O3'
M  END
>  <InstanceId>
3DS7_GNG_A_120

>  <ChemCompId>
GNG

>  <PdbId>
3DS7

>  <ChainId>
A

>  <ResidueNumber>
120

>  <InsertionCode>


>  <Model>
1

>  <AltIds>


>  <MissingHeavyAtoms>
0

>  <ObservedFormula>
C10 N5 O4

>  <Name>
2'-DEOXY-GUANOSINE

>  <SystematicName>
2-amino-9-[(2R,4S,5R)-4-hydroxy-5-(hydroxymethyl)oxolan-2-yl]-3H-purin-6-one

>  <Synonyms>


>  <Type>
NON-POLYMER

>  <Formula>
C10 H13 N5 O4

>  <MolecularWeight>
267.241

>  <ModifiedDate>
2011-06-04

>  <Parent>
G

>  <OneLetterCode>


>  <SubcomponentList>


>  <AmbiguousFlag>
N

>  <InChI>
InChI=1S/C10H13N5O4/c11-10-13-8-7(9(18)14-10)12-3-15(8)6-1-4(17)5(2-16)19-6/h3-6,16-17H,1-2H2,(H3,11,13,14,18)/t4-,5+,6+/m0/s1

>  <InChIKey>
YKBGVTZYEHREMT-KVQBGUIXSA-N

>  <SMILES>
c1nc2c(n1[C@H]3C[C@@H]([C@H](O3)CO)O)NC(=NC2=O)N

$$$$
