REMARK  2 active torsions:
REMARK  status: ('A' for Active; 'I' for Inactive)
REMARK    1  A    between atoms: C4*_3  and  C5*_2 
REMARK    2  A    between atoms: C1*_5  and  N9_6 
ROOT
ATOM      1  N9   G1 d         -10.924   4.708 -11.734  0.00  0.00    -0.271 N 
ATOM      2  C8   G1 d          -9.869   3.912 -12.062  0.00  0.00     0.182 A 
ATOM      3  N7   G1 d          -8.966   4.659 -12.678  0.00  0.00    -0.217 NA
ATOM      4  C5   G1 d          -9.415   5.915 -12.751  0.00  0.00     0.176 A 
ATOM      5  C4   G1 d         -10.677   5.951 -12.166  0.00  0.00     0.188 A 
ATOM      6  N3   G1 d         -11.425   7.170 -12.116  0.00  0.00    -0.038 NA
ATOM      7  C2   G1 d         -10.891   8.288 -12.648  0.00  0.00     0.773 A 
ATOM      8  N1   G1 d          -9.660   8.292 -13.178  0.00  0.00    -0.016 NA
ATOM      9  C6   G1 d          -8.886   7.197 -13.272  0.00  0.00     0.316 A 
ATOM     10  O6   G1 d          -7.716   7.302 -13.716  0.00  0.00    -0.263 OA
ATOM     11  N2   G1 d         -11.624   9.440 -12.728  0.00  0.00     0.062 N 
ENDROOT
BRANCH   1  12
ATOM     12  C1*  G1 d         -12.112   4.435 -11.000  0.00  0.00     0.210 C 
ATOM     13  O4*  G1 d         -11.903   5.040  -9.606  0.00  0.00    -0.333 OA
ATOM     14  C4*  G1 d         -11.943   3.919  -8.672  0.00  0.00     0.181 C 
ATOM     15  C3*  G1 d         -12.990   3.017  -9.318  0.00  0.00     0.186 C 
ATOM     16  C2*  G1 d         -12.430   2.946 -10.793  0.00  0.00     0.090 C 
ATOM     17  O3*  G1 d         -14.269   3.677  -9.297  0.00  0.00    -0.221 OA
BRANCH  14  18
ATOM     18  C5*  G1 d         -10.571   3.211  -8.530  0.00  0.00     0.214 C 
ATOM     19  O5*  G1 d          -9.757   4.000  -7.730  0.00  0.00    -0.218 OA
ENDBRANCH  14  18
ENDBRANCH   1  12
TORSDOF 2
