@<TRIPOS>MOLECULE
3DS7_GNG_A_120
 19 21 0 0 0
SMALL
GASTEIGER
****
Coordinates from PDB:3DS7:A:120 Model:1 without hydrogens
@<TRIPOS>ATOM
      1 O5*        -9.7570    4.0000   -7.7300 O.3     1    G1       -0.2176
      2 C5*       -10.5710    3.2110   -8.5300 C.3     1    G1        0.2141
      3 C4*       -11.9430    3.9190   -8.6720 C.3     1    G1        0.1804
      4 O4*       -11.9030    5.0400   -9.6060 O.3     1    G1       -0.3325
      5 C1*       -12.1120    4.4350  -11.0000 C.3     1    G1        0.2095
      6 N9        -10.9240    4.7080  -11.7340 N.ar    1    G1       -0.2713
      7 C8         -9.8690    3.9120  -12.0620 C.ar    1    G1        0.1816
      8 N7         -8.9660    4.6590  -12.6780 N.ar    1    G1       -0.2173
      9 C5         -9.4150    5.9150  -12.7510 C.ar    1    G1        0.1748
     10 C4        -10.6770    5.9510  -12.1660 C.ar    1    G1        0.1722
     11 N3        -11.4250    7.1700  -12.1160 N.ar    1    G1       -0.1918
     12 C2        -10.8910    8.2880  -12.6480 C.ar    1    G1        0.2606
     13 N1         -9.6600    8.2920  -13.1780 N.ar    1    G1       -0.1709
     14 C6         -8.8860    7.1970  -13.2720 C.ar    1    G1        0.3023
     15 O6         -7.7160    7.3020  -13.7160 O.2     1    G1       -0.2633
     16 N2        -11.6240    9.4400  -12.7280 N.pl3   1    G1       -0.0859
     17 C2*       -12.4300    2.9460  -10.7930 C.3     1    G1        0.0894
     18 C3*       -12.9900    3.0170   -9.3180 C.3     1    G1        0.1860
     19 O3*       -14.2690    3.6770   -9.2970 O.3     1    G1       -0.2203
@<TRIPOS>BOND
     1     1     2    1
     2     3     2    1
     3     3     4    1
     4     3    18    1
     5     4     5    1
     6     5     6    1
     7     5    17    1
     8     6     7   ar
     9     6    10   ar
    10     7     8   ar
    11     8     9   ar
    12     9    10   ar
    13     9    14   ar
    14    10    11   ar
    15    11    12   ar
    16    12    13   ar
    17    12    16    1
    18    13    14   ar
    19    14    15    2
    20    17    18    1
    21    18    19    1
