2FCZ_RIO_A_1024
 OpenBabel10091713573D
Coordinates from PDB:2FCZ:A:1024 Model:1 without hydrogens
 31 33  0  0  0  0  0  0  0  0999 V2000
    6.8600   38.5350   14.2590 O   0  0  0  0  0  0  0  0  0  0  0  0
    6.7890   38.2150   12.8670 C   0  0  0  0  0  0  0  0  0  0  0  0
    8.1750   38.3630   12.2340 C   0  0  1  0  0  0  0  0  0  0  0  0
    9.1150   37.3860   12.7260 O   0  0  0  0  0  0  0  0  0  0  0  0
    9.2520   36.3180   11.7660 C   0  0  1  0  0  0  0  0  0  0  0  0
    9.0520   35.0220   12.3590 O   0  0  0  0  0  0  0  0  0  0  0  0
   10.2070   34.4060   12.9560 C   0  0  2  0  0  0  0  0  0  0  0  0
   10.9780   33.5840   11.9140 C   0  0  1  0  0  0  0  0  0  0  0  0
   11.5620   34.4450   10.9320 O   0  0  0  0  0  0  0  0  0  0  0  0
   12.1030   32.7680   12.5540 C   0  0  2  0  0  0  0  0  0  0  0  0
   12.8580   32.0480   11.5180 N   0  0  0  0  0  0  0  0  0  0  0  0
   11.5180   31.7820   13.5680 C   0  0  0  0  0  0  0  0  0  0  0  0
   10.8010   32.5760   14.6630 C   0  0  2  0  0  0  0  0  0  0  0  0
   10.1760   31.6350   15.6050 N   0  0  0  0  0  0  0  0  0  0  0  0
    9.7250   33.5130   14.0990 C   0  0  1  0  0  0  0  0  0  0  0  0
    9.2300   34.2790   15.2120 O   0  0  0  0  0  0  0  0  0  0  0  0
    7.9370   34.8710   15.0120 C   0  0  1  0  0  0  0  0  0  0  0  0
    6.8950   33.9340   15.3380 O   0  0  0  0  0  0  0  0  0  0  0  0
    6.9150   33.4720   16.6990 C   0  0  2  0  0  0  0  0  0  0  0  0
    5.7580   32.4930   16.9170 C   0  0  0  0  0  0  0  0  0  0  0  0
    5.9680   31.2900   16.0960 N   0  0  0  0  0  0  0  0  0  0  0  0
    6.7560   34.6490   17.6650 C   0  0  1  0  0  0  0  0  0  0  0  0
    6.9160   34.1720   19.0030 O   0  0  0  0  0  0  0  0  0  0  0  0
    7.8330   35.7010   17.3900 C   0  0  2  0  0  0  0  0  0  0  0  0
    7.5730   36.8490   18.2000 O   0  0  0  0  0  0  0  0  0  0  0  0
    7.8150   36.1040   15.9130 C   0  0  1  0  0  0  0  0  0  0  0  0
    8.9270   37.0240   15.6370 N   0  0  0  0  0  0  0  0  0  0  0  0
    8.1560   36.5820   10.7300 C   0  0  2  0  0  0  0  0  0  0  0  0
    8.4560   36.0590    9.4330 O   0  0  0  0  0  0  0  0  0  0  0  0
    8.0890   38.1070   10.7300 C   0  0  2  0  0  0  0  0  0  0  0  0
    9.2130   38.6630   10.0440 O   0  0  0  0  0  0  0  0  0  0  0  0
  1  2  1  0  0  0  0
  3  2  1  1  0  0  0
  3  4  1  0  0  0  0
  3 30  1  0  0  0  0
  4  5  1  0  0  0  0
  5  6  1  1  0  0  0
  5 28  1  0  0  0  0
  7  6  1  6  0  0  0
  7  8  1  0  0  0  0
  7 15  1  0  0  0  0
  8  9  1  6  0  0  0
  8 10  1  0  0  0  0
 10 11  1  6  0  0  0
 10 12  1  0  0  0  0
 12 13  1  0  0  0  0
 13 14  1  1  0  0  0
 13 15  1  0  0  0  0
 15 16  1  1  0  0  0
 17 16  1  1  0  0  0
 17 18  1  0  0  0  0
 17 26  1  0  0  0  0
 18 19  1  0  0  0  0
 19 20  1  6  0  0  0
 19 22  1  0  0  0  0
 20 21  1  0  0  0  0
 22 23  1  1  0  0  0
 22 24  1  0  0  0  0
 24 25  1  1  0  0  0
 24 26  1  0  0  0  0
 26 27  1  1  0  0  0
 28 29  1  6  0  0  0
 28 30  1  0  0  0  0
 30 31  1  6  0  0  0
A    1
O1
A    2
C1
A    3
C2
A    4
O2
A    5
C3
A    6
O3
A    7
C4
A    8
C5
A    9
O4
A   10
C6
A   11
N1
A   12
C7
A   13
C8
A   14
N2
A   15
C9
A   16
O5
A   17
C10
A   18
O6
A   19
C11
A   20
C12
A   21
N3
A   22
C13
A   23
O7
A   24
C14
A   25
O8
A   26
C15
A   27
N4
A   28
C16
A   29
O9
A   30
C17
A   31
O10
M  END
>  <InstanceId>
2FCZ_RIO_A_1024

>  <ChemCompId>
RIO

>  <PdbId>
2FCZ

>  <ChainId>
A

>  <ResidueNumber>
1024

>  <InsertionCode>


>  <Model>
1

>  <AltIds>


>  <MissingHeavyAtoms>
0

>  <ObservedFormula>
C17 N4 O10

>  <Name>
RIBOSTAMYCIN

>  <SystematicName>
(2R,3S,4R,5R,6R)-5-amino-2-(aminomethyl)-6-[(1R,2R,3S,4R,6S)-4,6-diamino-2-[(2S,3R,4S,5R)-3,4-dihydroxy-5-(hydroxymethyl)oxolan-2-yl]oxy-3-hydroxy-cyclohexyl]oxy-oxane-3,4-diol

>  <Synonyms>
5-AMINO-2-AMINOMETHYL-6-[4,6-DIAMINO-2-(3,4-DIHYDROXY-5-HYDROXYMETHYL-TETRAHYDRO-FURAN-2-YLOXY)-3-HYDROXY-CYCLOHEXYLOXY]-TETRAHYDRO-PYRAN-3,4-DIOL; (1R,2R,3S,4R,6S)-4,6-diamino-3-hydroxy-2-(beta-D-ribofuranosyloxy)cyclohexyl 2,6-diamino-2,6-dideoxy-alpha-D-glucopyranoside

>  <Type>
NON-POLYMER

>  <Formula>
C17 H34 N4 O10

>  <MolecularWeight>
454.473

>  <ModifiedDate>
2011-06-04

>  <Parent>


>  <OneLetterCode>


>  <SubcomponentList>


>  <AmbiguousFlag>
N

>  <InChI>
InChI=1S/C17H34N4O10/c18-2-6-10(24)12(26)8(21)16(28-6)30-14-5(20)1-4(19)9(23)15(14)31-17-13(27)11(25)7(3-22)29-17/h4-17,22-27H,1-3,18-21H2/t4-,5+,6-,7-,8-,9+,10-,11-,12-,13-,14-,15-,16-,17+/m1/s1

>  <InChIKey>
NSKGQURZWSPSBC-VVPCINPTSA-N

>  <SMILES>
C1[C@H]([C@@H]([C@H]([C@@H]([C@H]1N)O[C@@H]2[C@@H]([C@H]([C@@H]([C@H](O2)CN)O)O)N)O[C@H]3[C@@H]([C@@H]([C@H](O3)CO)O)O)O)N

$$$$
