@<TRIPOS>MOLECULE
2FCZ_RIO_A_1024
 31 33 0 0 0
SMALL
GASTEIGER
****
Coordinates from PDB:2FCZ:A:1024 Model:1 without hydrogens
@<TRIPOS>ATOM
      1 O           6.8600   38.5350   14.2590 O.3     1  UNL1       -0.2176
      2 C           6.7890   38.2150   12.8670 C.3     1  UNL1        0.2142
      3 C           8.1750   38.3630   12.2340 C.3     1  UNL1        0.1836
      4 O           9.1150   37.3860   12.7260 O.3     1  UNL1       -0.3256
      5 C           9.2520   36.3180   11.7660 C.3     1  UNL1        0.2695
      6 O           9.0520   35.0220   12.3590 O.3     1  UNL1       -0.3258
      7 C          10.2070   34.4060   12.9560 C.3     1  UNL1        0.1779
      8 C          10.9780   33.5840   11.9140 C.3     1  UNL1        0.1989
      9 O          11.5620   34.4450   10.9320 O.3     1  UNL1       -0.2189
     10 C          12.1030   32.7680   12.5540 C.3     1  UNL1        0.1261
     11 N          12.8580   32.0480   11.5180 N.3     1  UNL1       -0.1301
     12 C          11.5180   31.7820   13.5680 C.3     1  UNL1        0.0433
     13 C          10.8010   32.5760   14.6630 C.3     1  UNL1        0.1230
     14 N          10.1760   31.6350   15.6050 N.3     1  UNL1       -0.1302
     15 C           9.7250   33.5130   14.0990 C.3     1  UNL1        0.1649
     16 O           9.2300   34.2790   15.2120 O.3     1  UNL1       -0.3278
     17 C           7.9370   34.8710   15.0120 C.3     1  UNL1        0.2561
     18 O           6.8950   33.9340   15.3380 O.3     1  UNL1       -0.3276
     19 C           6.9150   33.4720   16.6990 C.3     1  UNL1        0.1696
     20 C           5.7580   32.4930   16.9170 C.3     1  UNL1        0.1415
     21 N           5.9680   31.2900   16.0960 N.3     1  UNL1       -0.1286
     22 C           6.7560   34.6490   17.6650 C.3     1  UNL1        0.2122
     23 O           6.9160   34.1720   19.0030 O.3     1  UNL1       -0.2177
     24 C           7.8330   35.7010   17.3900 C.3     1  UNL1        0.2070
     25 O           7.5730   36.8490   18.2000 O.3     1  UNL1       -0.2186
     26 C           7.8150   36.1040   15.9130 C.3     1  UNL1        0.1807
     27 N           8.9270   37.0240   15.6370 N.3     1  UNL1       -0.1248
     28 C           8.1560   36.5820   10.7300 C.3     1  UNL1        0.2404
     29 O           8.4560   36.0590    9.4330 O.3     1  UNL1       -0.2149
     30 C           8.0890   38.1070   10.7300 C.3     1  UNL1        0.2168
     31 O           9.2130   38.6630   10.0440 O.3     1  UNL1       -0.2175
@<TRIPOS>BOND
     1     1     2    1
     2     3     2    1
     3     3     4    1
     4     3    30    1
     5     4     5    1
     6     5     6    1
     7     5    28    1
     8     7     6    1
     9     7     8    1
    10     7    15    1
    11     8     9    1
    12     8    10    1
    13    10    11    1
    14    10    12    1
    15    12    13    1
    16    13    14    1
    17    13    15    1
    18    15    16    1
    19    17    16    1
    20    17    18    1
    21    17    26    1
    22    18    19    1
    23    19    20    1
    24    19    22    1
    25    20    21    1
    26    22    23    1
    27    22    24    1
    28    24    25    1
    29    24    26    1
    30    26    27    1
    31    28    29    1
    32    28    30    1
    33    30    31    1
