2FCZ_RIO_A_1024
 OpenBabel10091713573D
Coordinates from PDB:2FCZ:A:1024 Model:1 without hydrogens
 65 67  0  0  1  0  0  0  0  0999 V2000
    6.8600   38.5350   14.2590 O   0  0  0  0  0  0  0  0  0  0  0  0
    6.7890   38.2150   12.8670 C   0  0  0  0  0  0  0  0  0  0  0  0
    8.1750   38.3630   12.2340 C   0  0  1  0  0  0  0  0  0  0  0  0
    9.1150   37.3860   12.7260 O   0  0  0  0  0  0  0  0  0  0  0  0
    9.2520   36.3180   11.7660 C   0  0  1  0  0  0  0  0  0  0  0  0
    9.0520   35.0220   12.3590 O   0  0  0  0  0  0  0  0  0  0  0  0
   10.2070   34.4060   12.9560 C   0  0  2  0  0  0  0  0  0  0  0  0
   10.9780   33.5840   11.9140 C   0  0  1  0  0  0  0  0  0  0  0  0
   11.5620   34.4450   10.9320 O   0  0  0  0  0  0  0  0  0  0  0  0
   12.1030   32.7680   12.5540 C   0  0  2  0  0  0  0  0  0  0  0  0
   12.8580   32.0480   11.5180 N   0  0  0  0  0  0  0  0  0  0  0  0
   11.5180   31.7820   13.5680 C   0  0  0  0  0  0  0  0  0  0  0  0
   10.8010   32.5760   14.6630 C   0  0  2  0  0  0  0  0  0  0  0  0
   10.1760   31.6350   15.6050 N   0  0  0  0  0  0  0  0  0  0  0  0
    9.7250   33.5130   14.0990 C   0  0  1  0  0  0  0  0  0  0  0  0
    9.2300   34.2790   15.2120 O   0  0  0  0  0  0  0  0  0  0  0  0
    7.9370   34.8710   15.0120 C   0  0  1  0  0  0  0  0  0  0  0  0
    6.8950   33.9340   15.3380 O   0  0  0  0  0  0  0  0  0  0  0  0
    6.9150   33.4720   16.6990 C   0  0  2  0  0  0  0  0  0  0  0  0
    5.7580   32.4930   16.9170 C   0  0  0  0  0  0  0  0  0  0  0  0
    5.9680   31.2900   16.0960 N   0  0  0  0  0  0  0  0  0  0  0  0
    6.7560   34.6490   17.6650 C   0  0  1  0  0  0  0  0  0  0  0  0
    6.9160   34.1720   19.0030 O   0  0  0  0  0  0  0  0  0  0  0  0
    7.8330   35.7010   17.3900 C   0  0  2  0  0  0  0  0  0  0  0  0
    7.5730   36.8490   18.2000 O   0  0  0  0  0  0  0  0  0  0  0  0
    7.8150   36.1040   15.9130 C   0  0  1  0  0  0  0  0  0  0  0  0
    8.9270   37.0240   15.6370 N   0  0  0  0  0  0  0  0  0  0  0  0
    8.1560   36.5820   10.7300 C   0  0  2  0  0  0  0  0  0  0  0  0
    8.4560   36.0590    9.4330 O   0  0  0  0  0  0  0  0  0  0  0  0
    8.0890   38.1070   10.7300 C   0  0  2  0  0  0  0  0  0  0  0  0
    9.2130   38.6630   10.0440 O   0  0  0  0  0  0  0  0  0  0  0  0
    5.9808   38.4405   14.6577 H   0  0  0  0  0  0  0  0  0  0  0  0
    6.1040   38.8797   12.3834 H   0  0  0  0  0  0  0  0  0  0  0  0
    6.4517   37.2062   12.7513 H   0  0  0  0  0  0  0  0  0  0  0  0
    8.5009   39.3531   12.4755 H   0  0  0  0  0  0  0  0  0  0  0  0
   10.2377   36.3053   11.3500 H   0  0  0  0  0  0  0  0  0  0  0  0
   10.8735   35.1546   13.3305 H   0  0  0  0  0  0  0  0  0  0  0  0
   10.2722   32.9190   11.4618 H   0  0  0  0  0  0  0  0  0  0  0  0
   12.1979   35.0393   11.3602 H   0  0  0  0  0  0  0  0  0  0  0  0
   12.7705   33.4317   13.0628 H   0  0  0  0  0  0  0  0  0  0  0  0
   12.2338   31.4104   11.0237 H   0  0  0  0  0  0  0  0  0  0  0  0
   13.6114   31.5163   11.9540 H   0  0  0  0  0  0  0  0  0  0  0  0
   12.3050   31.2006   14.0009 H   0  0  0  0  0  0  0  0  0  0  0  0
   10.8282   31.1240   13.0822 H   0  0  0  0  0  0  0  0  0  0  0  0
   11.5315   33.1842   15.1543 H   0  0  0  0  0  0  0  0  0  0  0  0
    9.4854   31.0688   15.1121 H   0  0  0  0  0  0  0  0  0  0  0  0
    9.7175   32.1562   16.3523 H   0  0  0  0  0  0  0  0  0  0  0  0
    8.9502   32.9304   13.6460 H   0  0  0  0  0  0  0  0  0  0  0  0
    7.8330   35.1497   13.9842 H   0  0  0  0  0  0  0  0  0  0  0  0
    7.8513   32.9887   16.8850 H   0  0  0  0  0  0  0  0  0  0  0  0
    4.8379   32.9606   16.6348 H   0  0  0  0  0  0  0  0  0  0  0  0
    5.7169   32.2158   17.9496 H   0  0  0  0  0  0  0  0  0  0  0  0
    6.0074   31.5530   15.1113 H   0  0  0  0  0  0  0  0  0  0  0  0
    5.1968   30.6389   16.2434 H   0  0  0  0  0  0  0  0  0  0  0  0
    5.7882   35.0859   17.5331 H   0  0  0  0  0  0  0  0  0  0  0  0
    7.7976   33.7801   19.1033 H   0  0  0  0  0  0  0  0  0  0  0  0
    8.7948   35.2945   17.6237 H   0  0  0  0  0  0  0  0  0  0  0  0
    6.6995   37.2089   17.9799 H   0  0  0  0  0  0  0  0  0  0  0  0
    6.8840   36.5891   15.7059 H   0  0  0  0  0  0  0  0  0  0  0  0
    9.8118   36.5572   15.8359 H   0  0  0  0  0  0  0  0  0  0  0  0
    8.8386   37.8510   16.2275 H   0  0  0  0  0  0  0  0  0  0  0  0
    7.2322   36.0990   10.9712 H   0  0  0  0  0  0  0  0  0  0  0  0
    9.2900   36.4396    9.1159 H   0  0  0  0  0  0  0  0  0  0  0  0
    7.2358   38.5329   10.2446 H   0  0  0  0  0  0  0  0  0  0  0  0
   10.0321   38.3188   10.4333 H   0  0  0  0  0  0  0  0  0  0  0  0
  1  2  1  0  0  0  0
  1 32  1  0  0  0  0
  2  3  1  0  0  0  0
  2 33  1  0  0  0  0
  2 34  1  0  0  0  0
  3  4  1  0  0  0  0
  3 30  1  0  0  0  0
  3 35  1  1  0  0  0
  4  5  1  0  0  0  0
  5  6  1  0  0  0  0
  5 28  1  0  0  0  0
  5 36  1  6  0  0  0
  6  7  1  0  0  0  0
  7  8  1  0  0  0  0
  7 15  1  0  0  0  0
  7 37  1  1  0  0  0
  8  9  1  0  0  0  0
  8 10  1  0  0  0  0
  8 38  1  6  0  0  0
  9 39  1  0  0  0  0
 10 11  1  0  0  0  0
 10 12  1  0  0  0  0
 10 40  1  1  0  0  0
 11 41  1  0  0  0  0
 11 42  1  0  0  0  0
 12 13  1  0  0  0  0
 12 43  1  0  0  0  0
 12 44  1  0  0  0  0
 13 14  1  0  0  0  0
 13 15  1  0  0  0  0
 13 45  1  1  0  0  0
 14 46  1  0  0  0  0
 14 47  1  0  0  0  0
 15 16  1  0  0  0  0
 15 48  1  6  0  0  0
 16 17  1  0  0  0  0
 17 18  1  0  0  0  0
 17 26  1  0  0  0  0
 17 49  1  6  0  0  0
 18 19  1  0  0  0  0
 19 20  1  0  0  0  0
 19 22  1  0  0  0  0
 19 50  1  1  0  0  0
 20 21  1  0  0  0  0
 20 51  1  0  0  0  0
 20 52  1  0  0  0  0
 21 53  1  0  0  0  0
 21 54  1  0  0  0  0
 22 23  1  0  0  0  0
 22 24  1  0  0  0  0
 22 55  1  6  0  0  0
 23 56  1  0  0  0  0
 24 25  1  0  0  0  0
 24 26  1  0  0  0  0
 24 57  1  1  0  0  0
 25 58  1  0  0  0  0
 26 27  1  0  0  0  0
 26 59  1  6  0  0  0
 27 60  1  0  0  0  0
 27 61  1  0  0  0  0
 28 29  1  0  0  0  0
 28 30  1  0  0  0  0
 28 62  1  1  0  0  0
 29 63  1  0  0  0  0
 30 31  1  0  0  0  0
 30 64  1  6  0  0  0
 31 65  1  0  0  0  0
M  END
$$$$
