REMARK  9 active torsions:
REMARK  status: ('A' for Active; 'I' for Inactive)
REMARK    1  A    between atoms: C_1  and  C_8 
REMARK    2  A    between atoms: C_3  and  O_40 
REMARK    3  A    between atoms: C_6  and  O_7 
REMARK    4  A    between atoms: C_12  and  O_7 
REMARK    5  A    between atoms: C_10  and  C_19 
REMARK    6  A    between atoms: C_21  and  C_30 
REMARK    7  A    between atoms: C_23  and  O_38 
REMARK    8  A    between atoms: C_37  and  O_38 
REMARK    9  A    between atoms: C_39  and  O_40 
ROOT
ATOM      1  C   UNL d   1      -2.783   1.981  -1.314  0.00  0.00     0.337 C 
ATOM      2  N   UNL d   1      -3.009   3.432  -1.506  0.00  0.00     0.619 N 
ATOM      3  C   UNL d   1      -3.942   1.372  -0.533  0.00  0.00     0.084 C 
ATOM      4  C   UNL d   1      -3.722  -0.120  -0.326  0.00  0.00     0.333 C 
ATOM      5  N   UNL d   1      -4.859  -0.639   0.421  0.00  0.00     0.619 N 
ATOM      6  C   UNL d   1      -2.419  -0.350   0.436  0.00  0.00     0.184 C 
ATOM      7  C   UNL d   1      -1.231   0.261  -0.320  0.00  0.00     0.180 C 
ATOM      8  C   UNL d   1      -1.452   1.745  -0.602  0.00  0.00     0.218 C 
ATOM      9  O   UNL d   1      -0.390   2.238  -1.408  0.00  0.00    -0.218 OA
ENDROOT
BRANCH   7  10
ATOM     10  O   UNL d   1      -0.037   0.119   0.473  0.00  0.00    -0.326 OA
BRANCH  10  11
ATOM     11  C   UNL d   1       1.101  -0.425  -0.192  0.00  0.00     0.270 C 
ATOM     12  O   UNL d   1       1.213  -1.761   0.299  0.00  0.00    -0.326 OA
ATOM     13  C   UNL d   1       2.423  -1.870   1.043  0.00  0.00     0.181 C 
ATOM     14  C   UNL d   1       2.668  -0.446   1.516  0.00  0.00     0.183 C 
ATOM     15  C   UNL d   1       2.397   0.286   0.215  0.00  0.00     0.238 C 
ATOM     16  O   UNL d   1       3.417   0.049  -0.761  0.00  0.00    -0.215 OA
BRANCH  13  17
ATOM     17  C   UNL d   1       2.277  -2.898   2.164  0.00  0.00     0.214 C 
ATOM     18  O   UNL d   1       2.091  -4.230   1.681  0.00  0.00    -0.218 OA
ENDBRANCH  13  17
BRANCH  14  19
ATOM     19  O   UNL d   1       4.007  -0.388   2.013  0.00  0.00    -0.326 OA
BRANCH  19  20
ATOM     20  C   UNL d   1       4.286   0.640   2.920  0.00  0.00     0.277 C 
ATOM     21  O   UNL d   1       3.399   0.639   4.031  0.00  0.00    -0.327 OA
ATOM     22  C   UNL d   1       3.623   1.725   4.951  0.00  0.00     0.190 C 
ATOM     23  C   UNL d   1       5.018   1.605   5.558  0.00  0.00     0.214 C 
ATOM     24  C   UNL d   1       6.066   1.586   4.441  0.00  0.00     0.227 C 
ATOM     25  O   UNL d   1       5.107   0.420   6.339  0.00  0.00    -0.218 OA
ATOM     26  C   UNL d   1       5.740   0.515   3.395  0.00  0.00     0.390 C 
ATOM     27  O   UNL d   1       6.121   2.862   3.817  0.00  0.00    -0.218 OA
ATOM     28  N   UNL d   1       5.991  -0.855   3.915  0.00  0.00     0.624 N 
BRANCH  22  29
ATOM     29  C   UNL d   1       2.514   1.697   5.988  0.00  0.00     0.370 C 
ATOM     30  N   UNL d   1       1.225   2.164   5.431  0.00  0.00     0.621 N 
ENDBRANCH  22  29
ENDBRANCH  19  20
ENDBRANCH  14  19
ENDBRANCH  10  11
ENDBRANCH   7  10
BRANCH   6  31
ATOM     31  O   UNL d   1      -2.204  -1.765   0.603  0.00  0.00    -0.327 OA
BRANCH  31  32
ATOM     32  C   UNL d   1      -1.605  -2.145   1.810  0.00  0.00     0.276 C 
ATOM     33  O   UNL d   1      -2.454  -1.904   2.929  0.00  0.00    -0.327 OA
ATOM     34  C   UNL d   1      -3.661  -2.693   2.947  0.00  0.00     0.190 C 
ATOM     35  C   UNL d   1      -3.316  -4.181   2.942  0.00  0.00     0.214 C 
ATOM     36  C   UNL d   1      -2.447  -4.498   1.727  0.00  0.00     0.227 C 
ATOM     37  O   UNL d   1      -4.511  -4.950   2.896  0.00  0.00    -0.218 OA
ATOM     38  C   UNL d   1      -1.205  -3.617   1.745  0.00  0.00     0.390 C 
ATOM     39  O   UNL d   1      -2.062  -5.864   1.745  0.00  0.00    -0.218 OA
ATOM     40  N   UNL d   1      -0.401  -3.877   0.527  0.00  0.00     0.624 N 
BRANCH  34  41
ATOM     41  C   UNL d   1      -4.452  -2.283   4.177  0.00  0.00     0.370 C 
ATOM     42  N   UNL d   1      -5.036  -0.931   4.022  0.00  0.00     0.621 N 
ENDBRANCH  34  41
ENDBRANCH  31  32
ENDBRANCH   6  31
TORSDOF 9
