@<TRIPOS>MOLECULE
ligands/ligand.pdb
 42 45 0 0 0
SMALL
GASTEIGER

@<TRIPOS>ATOM
      1 C           2.4230   -1.8700    1.0430 C.3     1  UNL1        0.1804
      2 O           1.2130   -1.7610    0.2990 O.3     1  UNL1       -0.3257
      3 C           1.1010   -0.4250   -0.1920 C.3     1  UNL1        0.2694
      4 C           2.3970    0.2860    0.2150 C.3     1  UNL1        0.2373
      5 O           3.4170    0.0490   -0.7610 O.3     1  UNL1       -0.2150
      6 C           2.6680   -0.4460    1.5160 C.3     1  UNL1        0.1827
      7 O           4.0070   -0.3880    2.0130 O.3     1  UNL1       -0.3265
      8 C           2.2770   -2.8980    2.1640 C.3     1  UNL1        0.2141
      9 O           2.0910   -4.2300    1.6810 O.3     1  UNL1       -0.2176
     10 C           3.6230    1.7250    4.9510 C.3     1  UNL1        0.1696
     11 O           3.3990    0.6390    4.0310 O.3     1  UNL1       -0.3276
     12 C           4.2860    0.6400    2.9200 C.3     1  UNL1        0.2561
     13 C           5.7400    0.5150    3.3950 C.3     1  UNL1        0.1807
     14 N           5.9910   -0.8550    3.9150 N.3     1  UNL1       -0.1248
     15 C           6.0660    1.5860    4.4410 C.3     1  UNL1        0.2070
     16 O           6.1210    2.8620    3.8170 O.3     1  UNL1       -0.2186
     17 C           5.0180    1.6050    5.5580 C.3     1  UNL1        0.2122
     18 O           5.1070    0.4200    6.3390 O.3     1  UNL1       -0.2177
     19 C           2.5140    1.6970    5.9880 C.3     1  UNL1        0.1415
     20 N           1.2250    2.1640    5.4310 N.3     1  UNL1       -0.1286
     21 C          -3.6610   -2.6930    2.9470 C.3     1  UNL1        0.1696
     22 O          -2.4540   -1.9040    2.9290 O.3     1  UNL1       -0.3276
     23 C          -1.6050   -2.1450    1.8100 C.3     1  UNL1        0.2561
     24 C          -1.2050   -3.6170    1.7450 C.3     1  UNL1        0.1807
     25 N          -0.4010   -3.8770    0.5270 N.3     1  UNL1       -0.1248
     26 C          -2.4470   -4.4980    1.7270 C.3     1  UNL1        0.2070
     27 O          -2.0620   -5.8640    1.7450 O.3     1  UNL1       -0.2186
     28 C          -3.3160   -4.1810    2.9420 C.3     1  UNL1        0.2122
     29 O          -4.5110   -4.9500    2.8960 O.3     1  UNL1       -0.2177
     30 C          -4.4520   -2.2830    4.1770 C.3     1  UNL1        0.1415
     31 N          -5.0360   -0.9310    4.0220 N.3     1  UNL1       -0.1286
     32 C          -2.7830    1.9810   -1.3140 C.3     1  UNL1        0.1261
     33 N          -3.0090    3.4320   -1.5060 N.3     1  UNL1       -0.1301
     34 C          -3.9420    1.3720   -0.5330 C.3     1  UNL1        0.0433
     35 C          -3.7220   -0.1200   -0.3260 C.3     1  UNL1        0.1230
     36 N          -4.8590   -0.6390    0.4210 N.3     1  UNL1       -0.1302
     37 C          -2.4190   -0.3500    0.4360 C.3     1  UNL1        0.1649
     38 O          -2.2040   -1.7650    0.6030 O.3     1  UNL1       -0.3278
     39 C          -1.2310    0.2610   -0.3200 C.3     1  UNL1        0.1779
     40 O          -0.0370    0.1190    0.4730 O.3     1  UNL1       -0.3258
     41 C          -1.4520    1.7450   -0.6020 C.3     1  UNL1        0.1989
     42 O          -0.3900    2.2380   -1.4080 O.3     1  UNL1       -0.2189
@<TRIPOS>BOND
     1     1     2    1
     2     1     6    1
     3     1     8    1
     4     2     3    1
     5     3    40    1
     6     3     4    1
     7     4     5    1
     8     4     6    1
     9     6     7    1
    10     8     9    1
    11    10    11    1
    12    10    17    1
    13    10    19    1
    14    11    12    1
    15    12    13    1
    16    12     7    1
    17    13    14    1
    18    13    15    1
    19    15    16    1
    20    15    17    1
    21    17    18    1
    22    19    20    1
    23    21    22    1
    24    21    28    1
    25    21    30    1
    26    22    23    1
    27    23    24    1
    28    23    38    1
    29    24    25    1
    30    24    26    1
    31    26    27    1
    32    26    28    1
    33    28    29    1
    34    30    31    1
    35    32    33    1
    36    32    34    1
    37    32    41    1
    38    34    35    1
    39    35    36    1
    40    35    37    1
    41    37    38    1
    42    37    39    1
    43    39    40    1
    44    39    41    1
    45    41    42    1
