ligands/ligand.pdb
 OpenBabel10091713573D

 88 91  0  0  1  0  0  0  0  0999 V2000
    2.4230   -1.8700    1.0430 C   0  0  1  0  0  0  0  0  0  0  0  0
    1.2130   -1.7610    0.2990 O   0  0  0  0  0  0  0  0  0  0  0  0
    1.1010   -0.4250   -0.1920 C   0  0  2  0  0  0  0  0  0  0  0  0
    2.3970    0.2860    0.2150 C   0  0  2  0  0  0  0  0  0  0  0  0
    3.4170    0.0490   -0.7610 O   0  0  0  0  0  0  0  0  0  0  0  0
    2.6680   -0.4460    1.5160 C   0  0  2  0  0  0  0  0  0  0  0  0
    4.0070   -0.3880    2.0130 O   0  0  0  0  0  0  0  0  0  0  0  0
    2.2770   -2.8980    2.1640 C   0  0  0  0  0  0  0  0  0  0  0  0
    2.0910   -4.2300    1.6810 O   0  0  0  0  0  0  0  0  0  0  0  0
    3.6230    1.7250    4.9510 C   0  0  2  0  0  0  0  0  0  0  0  0
    3.3990    0.6390    4.0310 O   0  0  0  0  0  0  0  0  0  0  0  0
    4.2860    0.6400    2.9200 C   0  0  1  0  0  0  0  0  0  0  0  0
    5.7400    0.5150    3.3950 C   0  0  2  0  0  0  0  0  0  0  0  0
    5.9910   -0.8550    3.9150 N   0  0  0  0  0  0  0  0  0  0  0  0
    6.0660    1.5860    4.4410 C   0  0  1  0  0  0  0  0  0  0  0  0
    6.1210    2.8620    3.8170 O   0  0  0  0  0  0  0  0  0  0  0  0
    5.0180    1.6050    5.5580 C   0  0  2  0  0  0  0  0  0  0  0  0
    5.1070    0.4200    6.3390 O   0  0  0  0  0  0  0  0  0  0  0  0
    2.5140    1.6970    5.9880 C   0  0  0  0  0  0  0  0  0  0  0  0
    1.2250    2.1640    5.4310 N   0  0  0  0  0  0  0  0  0  0  0  0
   -3.6610   -2.6930    2.9470 C   0  0  1  0  0  0  0  0  0  0  0  0
   -2.4540   -1.9040    2.9290 O   0  0  0  0  0  0  0  0  0  0  0  0
   -1.6050   -2.1450    1.8100 C   0  0  1  0  0  0  0  0  0  0  0  0
   -1.2050   -3.6170    1.7450 C   0  0  2  0  0  0  0  0  0  0  0  0
   -0.4010   -3.8770    0.5270 N   0  0  0  0  0  0  0  0  0  0  0  0
   -2.4470   -4.4980    1.7270 C   0  0  1  0  0  0  0  0  0  0  0  0
   -2.0620   -5.8640    1.7450 O   0  0  0  0  0  0  0  0  0  0  0  0
   -3.3160   -4.1810    2.9420 C   0  0  2  0  0  0  0  0  0  0  0  0
   -4.5110   -4.9500    2.8960 O   0  0  0  0  0  0  0  0  0  0  0  0
   -4.4520   -2.2830    4.1770 C   0  0  0  0  0  0  0  0  0  0  0  0
   -5.0360   -0.9310    4.0220 N   0  0  0  0  0  0  0  0  0  0  0  0
   -2.7830    1.9810   -1.3140 C   0  0  2  0  0  0  0  0  0  0  0  0
   -3.0090    3.4320   -1.5060 N   0  0  0  0  0  0  0  0  0  0  0  0
   -3.9420    1.3720   -0.5330 C   0  0  0  0  0  0  0  0  0  0  0  0
   -3.7220   -0.1200   -0.3260 C   0  0  2  0  0  0  0  0  0  0  0  0
   -4.8590   -0.6390    0.4210 N   0  0  0  0  0  0  0  0  0  0  0  0
   -2.4190   -0.3500    0.4360 C   0  0  1  0  0  0  0  0  0  0  0  0
   -2.2040   -1.7650    0.6030 O   0  0  0  0  0  0  0  0  0  0  0  0
   -1.2310    0.2610   -0.3200 C   0  0  2  0  0  0  0  0  0  0  0  0
   -0.0370    0.1190    0.4730 O   0  0  0  0  0  0  0  0  0  0  0  0
   -1.4520    1.7450   -0.6020 C   0  0  1  0  0  0  0  0  0  0  0  0
   -0.3900    2.2380   -1.4080 O   0  0  0  0  0  0  0  0  0  0  0  0
    3.2603   -2.2336    0.4848 H   0  0  0  0  0  0  0  0  0  0  0  0
    0.9773   -0.3359   -1.2511 H   0  0  0  0  0  0  0  0  0  0  0  0
    2.3530    1.3516    0.3010 H   0  0  0  0  0  0  0  0  0  0  0  0
    3.5187   -0.9060   -0.8971 H   0  0  0  0  0  0  0  0  0  0  0  0
    2.0852   -0.0423    2.3174 H   0  0  0  0  0  0  0  0  0  0  0  0
    1.4312   -2.6314    2.7627 H   0  0  0  0  0  0  0  0  0  0  0  0
    3.1861   -2.8868    2.7282 H   0  0  0  0  0  0  0  0  0  0  0  0
    1.2720   -4.2747    1.1631 H   0  0  0  0  0  0  0  0  0  0  0  0
    3.5914    2.6740    4.4578 H   0  0  0  0  0  0  0  0  0  0  0  0
    4.1444    1.5725    2.4147 H   0  0  0  0  0  0  0  0  0  0  0  0
    6.3918    0.6775    2.5621 H   0  0  0  0  0  0  0  0  0  0  0  0
    5.3796   -1.0336    4.7117 H   0  0  0  0  0  0  0  0  0  0  0  0
    6.9645   -0.9340    4.2091 H   0  0  0  0  0  0  0  0  0  0  0  0
    7.0156    1.3525    4.8753 H   0  0  0  0  0  0  0  0  0  0  0  0
    5.2578    3.0679    3.4254 H   0  0  0  0  0  0  0  0  0  0  0  0
    5.2017    2.4470    6.1922 H   0  0  0  0  0  0  0  0  0  0  0  0
    4.9422   -0.3519    5.7752 H   0  0  0  0  0  0  0  0  0  0  0  0
    2.7881    2.3317    6.8047 H   0  0  0  0  0  0  0  0  0  0  0  0
    2.3880    0.6848    6.3112 H   0  0  0  0  0  0  0  0  0  0  0  0
    1.3207    3.1292    5.1154 H   0  0  0  0  0  0  0  0  0  0  0  0
    0.5045    2.1116    6.1511 H   0  0  0  0  0  0  0  0  0  0  0  0
   -4.2563   -2.5205    2.0748 H   0  0  0  0  0  0  0  0  0  0  0  0
   -0.7306   -1.5438    1.9472 H   0  0  0  0  0  0  0  0  0  0  0  0
   -0.6193   -3.8470    2.6104 H   0  0  0  0  0  0  0  0  0  0  0  0
   -0.9565   -3.6587   -0.3001 H   0  0  0  0  0  0  0  0  0  0  0  0
   -0.1276   -4.8594    0.5033 H   0  0  0  0  0  0  0  0  0  0  0  0
   -3.0090   -4.3066    0.8368 H   0  0  0  0  0  0  0  0  0  0  0  0
   -1.5517   -6.0455    2.5497 H   0  0  0  0  0  0  0  0  0  0  0  0
   -2.7781   -4.4251    3.8341 H   0  0  0  0  0  0  0  0  0  0  0  0
   -5.0040   -4.7335    2.0891 H   0  0  0  0  0  0  0  0  0  0  0  0
   -3.8004   -2.2849    5.0258 H   0  0  0  0  0  0  0  0  0  0  0  0
   -5.2523   -2.9809    4.3090 H   0  0  0  0  0  0  0  0  0  0  0  0
   -4.2875   -0.2499    3.8947 H   0  0  0  0  0  0  0  0  0  0  0  0
   -5.5725   -0.6946    4.8567 H   0  0  0  0  0  0  0  0  0  0  0  0
   -2.7361    1.5016   -2.2695 H   0  0  0  0  0  0  0  0  0  0  0  0
   -3.0543    3.8923   -0.5969 H   0  0  0  0  0  0  0  0  0  0  0  0
   -3.8872    3.5763   -2.0043 H   0  0  0  0  0  0  0  0  0  0  0  0
   -4.8506    1.5214   -1.0781 H   0  0  0  0  0  0  0  0  0  0  0  0
   -4.0021    1.8482    0.4233 H   0  0  0  0  0  0  0  0  0  0  0  0
   -3.6448   -0.6270   -1.2651 H   0  0  0  0  0  0  0  0  0  0  0  0
   -4.9288   -0.1531    1.3151 H   0  0  0  0  0  0  0  0  0  0  0  0
   -4.7305   -1.6374    0.5857 H   0  0  0  0  0  0  0  0  0  0  0  0
   -2.4952    0.1233    1.3926 H   0  0  0  0  0  0  0  0  0  0  0  0
   -1.1335   -0.2553   -1.2521 H   0  0  0  0  0  0  0  0  0  0  0  0
   -1.4748    2.2641    0.3334 H   0  0  0  0  0  0  0  0  0  0  0  0
   -0.3775    1.7618   -2.2530 H   0  0  0  0  0  0  0  0  0  0  0  0
  1  2  1  0  0  0  0
  1  6  1  0  0  0  0
  1  8  1  0  0  0  0
  1 43  1  6  0  0  0
  2  3  1  0  0  0  0
  3 40  1  0  0  0  0
  3  4  1  0  0  0  0
  3 44  1  6  0  0  0
  4  5  1  0  0  0  0
  4  6  1  0  0  0  0
  4 45  1  1  0  0  0
  5 46  1  0  0  0  0
  6  7  1  0  0  0  0
  6 47  1  1  0  0  0
  8  9  1  0  0  0  0
  8 48  1  0  0  0  0
  8 49  1  0  0  0  0
  9 50  1  0  0  0  0
 10 11  1  0  0  0  0
 10 17  1  0  0  0  0
 10 19  1  0  0  0  0
 10 51  1  6  0  0  0
 11 12  1  0  0  0  0
 12 13  1  0  0  0  0
 12  7  1  0  0  0  0
 12 52  1  6  0  0  0
 13 14  1  0  0  0  0
 13 15  1  0  0  0  0
 13 53  1  6  0  0  0
 14 54  1  0  0  0  0
 14 55  1  0  0  0  0
 15 16  1  0  0  0  0
 15 17  1  0  0  0  0
 15 56  1  1  0  0  0
 16 57  1  0  0  0  0
 17 18  1  0  0  0  0
 17 58  1  1  0  0  0
 18 59  1  0  0  0  0
 19 20  1  0  0  0  0
 19 60  1  0  0  0  0
 19 61  1  0  0  0  0
 20 62  1  0  0  0  0
 20 63  1  0  0  0  0
 21 22  1  0  0  0  0
 21 28  1  0  0  0  0
 21 30  1  0  0  0  0
 21 64  1  6  0  0  0
 22 23  1  0  0  0  0
 23 24  1  0  0  0  0
 23 38  1  0  0  0  0
 23 65  1  1  0  0  0
 24 25  1  0  0  0  0
 24 26  1  0  0  0  0
 24 66  1  1  0  0  0
 25 67  1  0  0  0  0
 25 68  1  0  0  0  0
 26 27  1  0  0  0  0
 26 28  1  0  0  0  0
 26 69  1  6  0  0  0
 27 70  1  0  0  0  0
 28 29  1  0  0  0  0
 28 71  1  1  0  0  0
 29 72  1  0  0  0  0
 30 31  1  0  0  0  0
 30 73  1  0  0  0  0
 30 74  1  0  0  0  0
 31 75  1  0  0  0  0
 31 76  1  0  0  0  0
 32 33  1  0  0  0  0
 32 34  1  0  0  0  0
 32 41  1  0  0  0  0
 32 77  1  6  0  0  0
 33 78  1  0  0  0  0
 33 79  1  0  0  0  0
 34 35  1  0  0  0  0
 34 80  1  0  0  0  0
 34 81  1  0  0  0  0
 35 36  1  0  0  0  0
 35 37  1  0  0  0  0
 35 82  1  6  0  0  0
 36 83  1  0  0  0  0
 36 84  1  0  0  0  0
 37 38  1  0  0  0  0
 37 39  1  0  0  0  0
 37 85  1  1  0  0  0
 39 40  1  0  0  0  0
 39 41  1  0  0  0  0
 39 86  1  6  0  0  0
 41 42  1  0  0  0  0
 41 87  1  1  0  0  0
 42 88  1  0  0  0  0
M  END
$$$$
