ligands/ligand.pdb
 OpenBabel10091713573D

 42 45  0  0  1  0  0  0  0  0999 V2000
    2.4230   -1.8700    1.0430 C   0  0  1  0  0  0  0  0  0  0  0  0
    1.2130   -1.7610    0.2990 O   0  0  0  0  0  0  0  0  0  0  0  0
    1.1010   -0.4250   -0.1920 C   0  0  2  0  0  0  0  0  0  0  0  0
    2.3970    0.2860    0.2150 C   0  0  2  0  0  0  0  0  0  0  0  0
    3.4170    0.0490   -0.7610 O   0  0  0  0  0  0  0  0  0  0  0  0
    2.6680   -0.4460    1.5160 C   0  0  2  0  0  0  0  0  0  0  0  0
    4.0070   -0.3880    2.0130 O   0  0  0  0  0  0  0  0  0  0  0  0
    2.2770   -2.8980    2.1640 C   0  0  0  0  0  0  0  0  0  0  0  0
    2.0910   -4.2300    1.6810 O   0  0  0  0  0  0  0  0  0  0  0  0
    3.6230    1.7250    4.9510 C   0  0  2  0  0  0  0  0  0  0  0  0
    3.3990    0.6390    4.0310 O   0  0  0  0  0  0  0  0  0  0  0  0
    4.2860    0.6400    2.9200 C   0  0  1  0  0  0  0  0  0  0  0  0
    5.7400    0.5150    3.3950 C   0  0  2  0  0  0  0  0  0  0  0  0
    5.9910   -0.8550    3.9150 N   0  0  0  0  0  0  0  0  0  0  0  0
    6.0660    1.5860    4.4410 C   0  0  1  0  0  0  0  0  0  0  0  0
    6.1210    2.8620    3.8170 O   0  0  0  0  0  0  0  0  0  0  0  0
    5.0180    1.6050    5.5580 C   0  0  2  0  0  0  0  0  0  0  0  0
    5.1070    0.4200    6.3390 O   0  0  0  0  0  0  0  0  0  0  0  0
    2.5140    1.6970    5.9880 C   0  0  0  0  0  0  0  0  0  0  0  0
    1.2250    2.1640    5.4310 N   0  0  0  0  0  0  0  0  0  0  0  0
   -3.6610   -2.6930    2.9470 C   0  0  1  0  0  0  0  0  0  0  0  0
   -2.4540   -1.9040    2.9290 O   0  0  0  0  0  0  0  0  0  0  0  0
   -1.6050   -2.1450    1.8100 C   0  0  1  0  0  0  0  0  0  0  0  0
   -1.2050   -3.6170    1.7450 C   0  0  2  0  0  0  0  0  0  0  0  0
   -0.4010   -3.8770    0.5270 N   0  0  0  0  0  0  0  0  0  0  0  0
   -2.4470   -4.4980    1.7270 C   0  0  1  0  0  0  0  0  0  0  0  0
   -2.0620   -5.8640    1.7450 O   0  0  0  0  0  0  0  0  0  0  0  0
   -3.3160   -4.1810    2.9420 C   0  0  2  0  0  0  0  0  0  0  0  0
   -4.5110   -4.9500    2.8960 O   0  0  0  0  0  0  0  0  0  0  0  0
   -4.4520   -2.2830    4.1770 C   0  0  0  0  0  0  0  0  0  0  0  0
   -5.0360   -0.9310    4.0220 N   0  0  0  0  0  0  0  0  0  0  0  0
   -2.7830    1.9810   -1.3140 C   0  0  2  0  0  0  0  0  0  0  0  0
   -3.0090    3.4320   -1.5060 N   0  0  0  0  0  0  0  0  0  0  0  0
   -3.9420    1.3720   -0.5330 C   0  0  0  0  0  0  0  0  0  0  0  0
   -3.7220   -0.1200   -0.3260 C   0  0  2  0  0  0  0  0  0  0  0  0
   -4.8590   -0.6390    0.4210 N   0  0  0  0  0  0  0  0  0  0  0  0
   -2.4190   -0.3500    0.4360 C   0  0  1  0  0  0  0  0  0  0  0  0
   -2.2040   -1.7650    0.6030 O   0  0  0  0  0  0  0  0  0  0  0  0
   -1.2310    0.2610   -0.3200 C   0  0  2  0  0  0  0  0  0  0  0  0
   -0.0370    0.1190    0.4730 O   0  0  0  0  0  0  0  0  0  0  0  0
   -1.4520    1.7450   -0.6020 C   0  0  1  0  0  0  0  0  0  0  0  0
   -0.3900    2.2380   -1.4080 O   0  0  0  0  0  0  0  0  0  0  0  0
  1  2  1  0  0  0  0
  1  6  1  0  0  0  0
  1  8  1  1  0  0  0
  2  3  1  0  0  0  0
  3 40  1  1  0  0  0
  3  4  1  0  0  0  0
  4  5  1  6  0  0  0
  4  6  1  0  0  0  0
  6  7  1  6  0  0  0
  8  9  1  0  0  0  0
 10 11  1  0  0  0  0
 10 17  1  0  0  0  0
 10 19  1  1  0  0  0
 11 12  1  0  0  0  0
 12 13  1  0  0  0  0
 12  7  1  6  0  0  0
 13 14  1  1  0  0  0
 13 15  1  0  0  0  0
 15 16  1  6  0  0  0
 15 17  1  0  0  0  0
 17 18  1  6  0  0  0
 19 20  1  0  0  0  0
 21 22  1  0  0  0  0
 21 28  1  0  0  0  0
 21 30  1  1  0  0  0
 22 23  1  0  0  0  0
 23 24  1  0  0  0  0
 23 38  1  6  0  0  0
 24 25  1  6  0  0  0
 24 26  1  0  0  0  0
 26 27  1  1  0  0  0
 26 28  1  0  0  0  0
 28 29  1  6  0  0  0
 30 31  1  0  0  0  0
 32 33  1  1  0  0  0
 32 34  1  0  0  0  0
 32 41  1  0  0  0  0
 34 35  1  0  0  0  0
 35 36  1  1  0  0  0
 35 37  1  0  0  0  0
 37 38  1  6  0  0  0
 37 39  1  0  0  0  0
 39 40  1  1  0  0  0
 39 41  1  0  0  0  0
 41 42  1  6  0  0  0
M  END
>  <HEADER>
Generated with yapdb_parser, version: unknown (https://github.com/m4rx9/rna-pdb-tools) Wed Jan 27 17:52:22 2016

$$$$
