1P9X_TEL_0_2881
 OpenBabel10091713573D
Coordinates from PDB:1P9X:0:2881 Model:1 without hydrogens
 58 62  0  0  0  0  0  0  0  0999 V2000
   39.0120  130.5070  124.4340 C   0  0  0  0  0  0  0  0  0  0  0  0
   40.1230  131.0490  125.4040 C   0  0  2  0  0  0  0  0  0  0  0  0
   40.7430  132.4280  124.7900 C   0  0  2  0  0  0  0  0  0  0  0  0
   41.1020  129.7570  125.7750 C   0  0  1  0  0  0  0  0  0  0  0  0
   39.5350  131.5880  126.6620 O   0  0  0  0  0  0  0  0  0  0  0  0
   39.4620  133.2400  125.0130 N   0  0  0  0  0  0  0  0  0  0  0  0
   41.4200  132.4060  123.2800 C   0  0  1  0  0  0  0  0  0  0  0  0
   40.2890  128.4820  126.3720 C   0  0  0  0  0  0  0  0  0  0  0  0
   41.8210  129.0780  124.6540 O   0  0  0  0  0  0  0  0  0  0  0  0
   39.3430  132.9680  126.3930 C   0  0  0  0  0  0  0  0  0  0  0  0
   39.2430  134.7280  124.6520 C   0  0  0  0  0  0  0  0  0  0  0  0
   41.9860  133.8030  122.8150 C   0  0  0  0  0  0  0  0  0  0  0  0
   42.6630  131.5280  123.0970 C   0  0  0  0  0  0  0  0  0  0  0  0
   39.3790  128.7000  127.6090 C   0  0  0  0  0  0  0  0  0  0  0  0
   42.9700  128.2750  125.2120 C   0  0  0  0  0  0  0  0  0  0  0  0
   39.1200  133.8130  127.2830 O   0  0  0  0  0  0  0  0  0  0  0  0
   38.5420  135.0360  123.2870 C   0  0  0  0  0  0  0  0  0  0  0  0
   43.5730  131.5600  123.9530 O   0  0  0  0  0  0  0  0  0  0  0  0
   42.8180  130.6460  121.8290 C   0  0  2  0  0  0  0  0  0  0  0  0
   43.5270  128.6380  126.2720 O   0  0  0  0  0  0  0  0  0  0  0  0
   43.5150  126.9490  124.5760 C   0  0  1  0  0  0  0  0  0  0  0  0
   38.4170  136.5850  123.1950 C   0  0  0  0  0  0  0  0  0  0  0  0
   41.4460  129.8800  121.5920 C   0  0  0  0  0  0  0  0  0  0  0  0
   44.0870  129.6610  122.0330 C   0  0  0  0  0  0  0  0  0  0  0  0
   42.5390  126.3400  123.5520 C   0  0  0  0  0  0  0  0  0  0  0  0
   45.0030  127.0090  124.0040 C   0  0  0  0  0  0  0  0  0  0  0  0
   37.7870  137.1090  121.8640 C   0  0  0  0  0  0  0  0  0  0  0  0
   44.6900  128.6500  120.8930 C   0  0  2  0  0  0  0  0  0  0  0  0
   45.8800  127.4860  124.7570 O   0  0  0  0  0  0  0  0  0  0  0  0
   45.4910  126.4790  122.5710 C   0  0  1  0  0  0  0  0  0  0  0  0
   36.8180  138.2300  122.1250 N   0  0  0  0  0  0  0  0  0  0  0  0
   45.3810  129.4340  119.8070 O   0  0  0  0  0  0  0  0  0  0  0  0
   43.5770  127.7160  120.2520 C   0  0  0  0  0  0  0  0  0  0  0  0
   45.8900  127.6210  121.3450 C   0  0  1  0  0  0  0  0  0  0  0  0
   46.6620  125.5610  122.9620 C   0  0  0  0  0  0  0  0  0  0  0  0
   35.5090  138.2110  121.5900 C   0  0  0  0  0  0  0  0  0  0  0  0
   36.9560  139.4610  122.8690 C   0  0  0  0  0  0  0  0  0  0  0  0
   44.6060  130.1780  118.8380 C   0  0  0  0  0  0  0  0  0  0  0  0
   46.0740  127.1600  119.9390 O   0  0  0  0  0  0  0  0  0  0  0  0
   34.9140  139.3410  121.9900 C   0  0  0  0  0  0  0  0  0  0  0  0
   35.8280  140.1060  122.7830 N   0  0  0  0  0  0  0  0  0  0  0  0
   47.0670  126.2920  119.4100 C   0  0  1  0  0  0  0  0  0  0  0  0
   33.4950  139.6950  121.6280 C   0  0  0  0  0  0  0  0  0  0  0  0
   46.4460  125.0230  118.7750 C   0  0  2  0  0  0  0  0  0  0  0  0
   47.7670  127.0640  118.4070 O   0  0  0  0  0  0  0  0  0  0  0  0
   32.9160  140.8600  122.0570 C   0  0  0  0  0  0  0  0  0  0  0  0
   32.6620  138.7670  120.7760 C   0  0  0  0  0  0  0  0  0  0  0  0
   45.7610  124.3020  119.8030 O   0  0  0  0  0  0  0  0  0  0  0  0
   47.6340  124.1630  118.0880 C   0  0  1  0  0  0  0  0  0  0  0  0
   48.8240  126.3540  117.7430 C   0  0  1  0  0  0  0  0  0  0  0  0
   31.5020  141.1670  121.6740 C   0  0  0  0  0  0  0  0  0  0  0  0
   31.4300  139.0680  120.4600 N   0  0  0  0  0  0  0  0  0  0  0  0
   47.1620  122.8750  117.3670 N   0  0  0  0  0  0  0  0  0  0  0  0
   48.3010  125.0830  117.0380 C   0  0  0  0  0  0  0  0  0  0  0  0
   49.4840  127.2810  116.7140 C   0  0  0  0  0  0  0  0  0  0  0  0
   30.8100  140.2850  120.9030 C   0  0  0  0  0  0  0  0  0  0  0  0
   48.2940  122.1670  116.7370 C   0  0  0  0  0  0  0  0  0  0  0  0
   46.5320  121.8910  118.2460 C   0  0  0  0  0  0  0  0  0  0  0  0
  2  1  1  6  0  0  0
  2  3  1  0  0  0  0
  2  4  1  0  0  0  0
  2  5  1  0  0  0  0
  3  6  1  6  0  0  0
  3  7  1  0  0  0  0
  4  8  1  6  0  0  0
  4  9  1  0  0  0  0
  5 10  1  0  0  0  0
  6 10  1  0  0  0  0
  6 11  1  0  0  0  0
  7 12  1  1  0  0  0
  7 13  1  0  0  0  0
  8 14  1  0  0  0  0
  9 15  1  0  0  0  0
 10 16  2  0  0  0  0
 11 17  1  0  0  0  0
 13 18  2  0  0  0  0
 13 19  1  0  0  0  0
 15 20  2  0  0  0  0
 15 21  1  0  0  0  0
 17 22  1  0  0  0  0
 19 23  1  1  0  0  0
 19 24  1  0  0  0  0
 21 25  1  6  0  0  0
 21 26  1  0  0  0  0
 22 27  1  0  0  0  0
 24 28  1  0  0  0  0
 26 29  2  0  0  0  0
 26 30  1  0  0  0  0
 27 31  1  0  0  0  0
 28 32  1  0  0  0  0
 28 33  1  6  0  0  0
 28 34  1  0  0  0  0
 30 34  1  0  0  0  0
 30 35  1  1  0  0  0
 31 36  1  0  0  0  0
 31 37  1  0  0  0  0
 32 38  1  0  0  0  0
 34 39  1  6  0  0  0
 36 40  2  0  0  0  0
 37 41  2  0  0  0  0
 40 41  1  0  0  0  0
 40 43  1  0  0  0  0
 42 39  1  6  0  0  0
 42 44  1  0  0  0  0
 42 45  1  0  0  0  0
 43 46  2  0  0  0  0
 43 47  1  0  0  0  0
 44 48  1  1  0  0  0
 44 49  1  0  0  0  0
 45 50  1  0  0  0  0
 46 51  1  0  0  0  0
 47 52  2  0  0  0  0
 49 53  1  6  0  0  0
 49 54  1  0  0  0  0
 50 54  1  0  0  0  0
 50 55  1  6  0  0  0
 51 56  2  0  0  0  0
 52 56  1  0  0  0  0
 53 57  1  0  0  0  0
 53 58  1  0  0  0  0
A    1
C1
A    2
C2
A    3
C3
A    4
C4
A    5
O5
A    6
N6
A    7
C7
A    8
C8
A    9
O9
A   10
C10
A   11
C11
A   12
C12
A   13
C13
A   14
C14
A   15
C15
A   16
O16
A   17
C17
A   18
O18
A   19
C19
A   20
O20
A   21
C21
A   22
C22
A   23
C23
A   24
C24
A   25
C25
A   26
C26
A   27
C27
A   28
C28
A   29
O29
A   30
C30
A   31
N31
A   32
O32
A   33
C33
A   34
C34
A   35
C35
A   36
C36
A   37
C37
A   38
C38
A   39
O39
A   40
C40
A   41
N41
A   42
C42
A   43
C43
A   44
C44
A   45
O45
A   46
C46
A   47
C47
A   48
O48
A   49
C49
A   50
C50
A   51
C51
A   52
N52
A   53
N53
A   54
C54
A   55
C55
A   56
C56
A   57
C57
A   58
C58
M  END
>  <InstanceId>
1P9X_TEL_0_2881

>  <ChemCompId>
TEL

>  <PdbId>
1P9X

>  <ChainId>
0

>  <ResidueNumber>
2881

>  <InsertionCode>


>  <Model>
1

>  <AltIds>


>  <MissingHeavyAtoms>
0

>  <ObservedFormula>
C43 N5 O10

>  <Name>
TELITHROMYCIN

>  <SystematicName>
(1S,2R,5S,7R,8R,9R,11R,13R,14R)-8-[(2S,3R,4S,6R)-4-dimethylamino-3-hydroxy-6-methyl-oxan-2-yl]oxy-2-ethyl-9-methoxy-1,5,7,9,11,13-hexamethyl-15-[4-(4-pyridin-3-ylimidazol-1-yl)butyl]-3,17-dioxa-15-azabicyclo[12.3.0]heptadecane-4,6,12,16-tetrone

>  <Synonyms>
(3R,5S,6S,7R,8S,11S,12R,13S,14R,15S)-12- [(4-O-ACETYL-2,6-DIDEOXY-3-O-METHYL-ALPHA-L-ARABINO-HEXOPYRANOSYL) OXY] -14-{[2-O-ACETYL-3,4,6-TRIDEOXY-3-(DIMETHYLAMINO) BETA-D-XYLO-HEXOPYRANOSYL]OXY} -5,7,8,11,13,15-HEXAMETHYL-4,10-DIOXO-1,9-DIOXASPIRO[2.13]HEXADEC-6-YL ACETATE

>  <Type>
NON-POLYMER

>  <Formula>
C43 H65 N5 O10

>  <MolecularWeight>
812.004

>  <ModifiedDate>
2011-06-04

>  <Parent>


>  <OneLetterCode>


>  <SubcomponentList>


>  <AmbiguousFlag>
N

>  <InChI>
InChI=1S/C43H65N5O10/c1-12-33-43(8)37(48(41(53)58-43)19-14-13-18-47-23-31(45-24-47)30-16-15-17-44-22-30)27(4)34(49)25(2)21-42(7,54-11)38(28(5)35(50)29(6)39(52)56-33)57-40-36(51)32(46(9)10)20-26(3)55-40/h15-17,22-29,32-33,36-38,40,51H,12-14,18-21H2,1-11H3/t25-,26-,27+,28+,29+,32+,33-,36-,37-,38-,40+,42-,43-/m1/s1

>  <InChIKey>
LJVAJPDWBABPEJ-MMEUOAQYSA-N

>  <SMILES>
CC[C@@H]1[C@@]2([C@@H]([C@H](C(=O)[C@@H](C[C@@]([C@@H]([C@H](C(=O)[C@@H](C(=O)O1)C)C)O[C@H]3[C@@H]([C@H](C[C@H](O3)C)N(C)C)O)(C)OC)C)C)N(C(=O)O2)CCCCn4cc(nc4)c5cccnc5)C

$$$$
