@<TRIPOS>MOLECULE
1P9X_TEL_0_2881
 58 62 0 0 0
SMALL
GASTEIGER
****
Coordinates from PDB:1P9X:0:2881 Model:1 without hydrogens
@<TRIPOS>ATOM
      1 C          39.0120  130.5070  124.4340 C.3     1  UNL1        0.0493
      2 C          40.1230  131.0490  125.4040 C.3     1  UNL1        0.1908
      3 C          40.7430  132.4280  124.7900 C.3     1  UNL1        0.1254
      4 C          41.1020  129.7570  125.7750 C.3     1  UNL1        0.2066
      5 O          39.5350  131.5880  126.6620 O.3     1  UNL1       -0.4365
      6 N          39.4620  133.2400  125.0130 N.am    1  UNL1       -0.2437
      7 C          41.4200  132.4060  123.2800 C.3     1  UNL1        0.0794
      8 C          40.2890  128.4820  126.3720 C.3     1  UNL1        0.0474
      9 O          41.8210  129.0780  124.6540 O.3     1  UNL1       -0.4483
     10 C          39.3430  132.9680  126.3930 C.2     1  UNL1        0.4049
     11 C          39.2430  134.7280  124.6520 C.3     1  UNL1        0.0969
     12 C          41.9860  133.8030  122.8150 C.3     1  UNL1        0.0096
     13 C          42.6630  131.5280  123.0970 C.2     1  UNL1        0.1516
     14 C          39.3790  128.7000  127.6090 C.3     1  UNL1        0.0040
     15 C          42.9700  128.2750  125.2120 C.2     1  UNL1        0.3235
     16 O          39.1200  133.8130  127.2830 O.2     1  UNL1       -0.2262
     17 C          38.5420  135.0360  123.2870 C.3     1  UNL1        0.0236
     18 O          43.5730  131.5600  123.9530 O.2     1  UNL1       -0.2960
     19 C          42.8180  130.6460  121.8290 C.3     1  UNL1        0.0601
     20 O          43.5270  128.6380  126.2720 O.2     1  UNL1       -0.2496
     21 C          43.5150  126.9490  124.5760 C.3     1  UNL1        0.1563
     22 C          38.4170  136.5850  123.1950 C.3     1  UNL1        0.0263
     23 C          41.4460  129.8800  121.5920 C.3     1  UNL1        0.0078
     24 C          44.0870  129.6610  122.0330 C.3     1  UNL1        0.0370
     25 C          42.5390  126.3400  123.5520 C.3     1  UNL1        0.0196
     26 C          45.0030  127.0090  124.0040 C.2     1  UNL1        0.1629
     27 C          37.7870  137.1090  121.8640 C.3     1  UNL1        0.1077
     28 C          44.6900  128.6500  120.8930 C.3     1  UNL1        0.1186
     29 O          45.8800  127.4860  124.7570 O.2     1  UNL1       -0.2954
     30 C          45.4910  126.4790  122.5710 C.3     1  UNL1        0.0877
     31 N          36.8180  138.2300  122.1250 N.ar    1  UNL1       -0.3079
     32 O          45.3810  129.4340  119.8070 O.3     1  UNL1       -0.3535
     33 C          43.5770  127.7160  120.2520 C.3     1  UNL1        0.0322
     34 C          45.8900  127.6210  121.3450 C.3     1  UNL1        0.1493
     35 C          46.6620  125.5610  122.9620 C.3     1  UNL1        0.0104
     36 C          35.5090  138.2110  121.5900 C.ar    1  UNL1        0.0965
     37 C          36.9560  139.4610  122.8690 C.ar    1  UNL1        0.1785
     38 C          44.6060  130.1780  118.8380 C.3     1  UNL1        0.1740
     39 O          46.0740  127.1600  119.9390 O.3     1  UNL1       -0.3282
     40 C          34.9140  139.3410  121.9900 C.ar    1  UNL1        0.1017
     41 N          35.8280  140.1060  122.7830 N.ar    1  UNL1       -0.2238
     42 C          47.0670  126.2920  119.4100 C.3     1  UNL1        0.2680
     43 C          33.4950  139.6950  121.6280 C.ar    1  UNL1        0.0383
     44 C          46.4460  125.0230  118.7750 C.3     1  UNL1        0.2224
     45 O          47.7670  127.0640  118.4070 O.3     1  UNL1       -0.3311
     46 C          32.9160  140.8600  122.0570 C.ar    1  UNL1        0.0047
     47 C          32.6620  138.7670  120.7760 C.ar    1  UNL1        0.1004
     48 O          45.7610  124.3020  119.8030 O.3     1  UNL1       -0.2163
     49 C          47.6340  124.1630  118.0880 C.3     1  UNL1        0.0957
     50 C          48.8240  126.3540  117.7430 C.3     1  UNL1        0.1194
     51 C          31.5020  141.1670  121.6740 C.ar    1  UNL1        0.0207
     52 N          31.4300  139.0680  120.4600 N.ar    1  UNL1       -0.2423
     53 N          47.1620  122.8750  117.3670 N.3     1  UNL1       -0.2691
     54 C          48.3010  125.0830  117.0380 C.3     1  UNL1        0.0483
     55 C          49.4840  127.2810  116.7140 C.3     1  UNL1        0.0322
     56 C          30.8100  140.2850  120.9030 C.ar    1  UNL1        0.0989
     57 C          48.2940  122.1670  116.7370 C.3     1  UNL1        0.0897
     58 C          46.5320  121.8910  118.2460 C.3     1  UNL1        0.0897
@<TRIPOS>BOND
     1     2     1    1
     2     2     3    1
     3     2     4    1
     4     2     5    1
     5     3     6    1
     6     3     7    1
     7     4     8    1
     8     4     9    1
     9     5    10    1
    10     6    10   am
    11     6    11    1
    12     7    12    1
    13     7    13    1
    14     8    14    1
    15     9    15    1
    16    10    16    2
    17    11    17    1
    18    13    18    2
    19    13    19    1
    20    15    20    2
    21    15    21    1
    22    17    22    1
    23    19    23    1
    24    19    24    1
    25    21    25    1
    26    21    26    1
    27    22    27    1
    28    24    28    1
    29    26    29    2
    30    26    30    1
    31    27    31    1
    32    28    32    1
    33    28    33    1
    34    28    34    1
    35    30    34    1
    36    30    35    1
    37    31    36   ar
    38    31    37   ar
    39    32    38    1
    40    34    39    1
    41    36    40   ar
    42    37    41   ar
    43    40    41   ar
    44    40    43    1
    45    42    39    1
    46    42    44    1
    47    42    45    1
    48    43    46   ar
    49    43    47   ar
    50    44    48    1
    51    44    49    1
    52    45    50    1
    53    46    51   ar
    54    47    52   ar
    55    49    53    1
    56    49    54    1
    57    50    54    1
    58    50    55    1
    59    51    56   ar
    60    52    56   ar
    61    53    57    1
    62    53    58    1
