ligand.pdb
 OpenBabel03221816013D

 51 53  0  0  1  0  0  0  0  0999 V2000
   48.3070   57.4420   28.6680 N   0  0  0  0  0  0  0  0  0  0  0  0
   48.3360   56.5750   27.4910 C   0  0  2  0  0  0  0  0  0  0  0  0
   47.1510   56.8800   26.6210 C   0  0  0  0  0  0  0  0  0  0  0  0
   46.9620   56.2350   25.5950 O   0  0  0  0  0  0  0  0  0  0  0  0
   46.3540   57.7450   26.9610 O   0  0  0  0  0  0  0  0  0  0  0  0
   48.2820   55.1070   27.9120 C   0  0  0  0  0  0  0  0  0  0  0  0
   49.2810   54.8800   29.0320 C   0  0  0  0  0  0  0  0  0  0  0  0
   49.2850   53.1780   29.6800 S   0  0  2  0  0  0  0  0  0  0  0  0
   48.4590   52.1990   28.3910 C   0  0  0  0  0  0  0  0  0  0  0  0
   47.7330   53.1110   30.7620 C   0  0  0  0  0  0  0  0  0  0  0  0
   47.7870   53.6870   32.2390 C   0  0  2  0  0  0  0  0  0  0  0  0
   47.4270   55.0340   32.4470 O   0  0  0  0  0  0  0  0  0  0  0  0
   48.9280   53.3860   33.1260 C   0  0  1  0  0  0  0  0  0  0  0  0
   49.6980   52.2710   32.6750 O   0  0  0  0  0  0  0  0  0  0  0  0
   49.6450   54.8120   32.9930 C   0  0  2  0  0  0  0  0  0  0  0  0
   50.6610   54.9460   33.9410 O   0  0  0  0  0  0  0  0  0  0  0  0
   48.4630   55.7390   33.2700 C   0  0  1  0  0  0  0  0  0  0  0  0
   48.3950   57.1910   32.8180 N   0  0  0  0  0  0  0  0  0  0  0  0
   49.1840   58.3040   32.9010 C   0  0  0  0  0  0  0  0  0  0  0  0
   48.5880   59.3370   32.3680 N   0  0  0  0  0  0  0  0  0  0  0  0
   47.3870   58.9630   31.8930 C   0  0  0  0  0  0  0  0  0  0  0  0
   46.3160   59.6200   31.2260 C   0  0  0  0  0  0  0  0  0  0  0  0
   46.3770   60.9680   30.9360 N   0  0  0  0  0  0  0  0  0  0  0  0
   45.2320   58.8980   30.8800 N   0  0  0  0  0  0  0  0  0  0  0  0
   45.1590   57.5850   31.1140 C   0  0  0  0  0  0  0  0  0  0  0  0
   46.1140   56.9510   31.7880 N   0  0  0  0  0  0  0  0  0  0  0  0
   47.2380   57.5790   32.1680 C   0  0  0  0  0  0  0  0  0  0  0  0
   48.3436   58.4176   28.3726 H   0  0  0  0  0  0  0  0  0  0  0  0
   49.1104   57.2362   29.2618 H   0  0  0  0  0  0  0  0  0  0  0  0
   49.2436   56.7518   26.9525 H   0  0  0  0  0  0  0  0  0  0  0  0
   46.5016   58.2358   27.7454 H   0  0  0  0  0  0  0  0  0  0  0  0
   48.5301   54.4847   27.0777 H   0  0  0  0  0  0  0  0  0  0  0  0
   47.2966   54.8626   28.2499 H   0  0  0  0  0  0  0  0  0  0  0  0
   49.0444   55.5462   29.8352 H   0  0  0  0  0  0  0  0  0  0  0  0
   50.2534   55.0601   28.6234 H   0  0  0  0  0  0  0  0  0  0  0  0
   50.5117   52.8317   30.1543 H   0  0  0  0  0  0  0  0  0  0  0  0
   47.5108   52.6387   28.1619 H   0  0  0  0  0  0  0  0  0  0  0  0
   48.3129   51.1987   28.7415 H   0  0  0  0  0  0  0  0  0  0  0  0
   49.0669   52.1832   27.5106 H   0  0  0  0  0  0  0  0  0  0  0  0
   47.4512   52.0817   30.8392 H   0  0  0  0  0  0  0  0  0  0  0  0
   47.0487   53.7640   30.2618 H   0  0  0  0  0  0  0  0  0  0  0  0
   46.9869   53.0441   32.5414 H   0  0  0  0  0  0  0  0  0  0  0  0
   48.7139   53.0723   34.1263 H   0  0  0  0  0  0  0  0  0  0  0  0
   49.9709   52.4172   31.7557 H   0  0  0  0  0  0  0  0  0  0  0  0
   50.1336   54.9975   32.0593 H   0  0  0  0  0  0  0  0  0  0  0  0
   50.2986   54.7915   34.8274 H   0  0  0  0  0  0  0  0  0  0  0  0
   48.4236   55.8664   34.3317 H   0  0  0  0  0  0  0  0  0  0  0  0
   50.1236   58.3254   33.3272 H   0  0  0  0  0  0  0  0  0  0  0  0
   47.1712   61.4909   31.1910 H   0  0  0  0  0  0  0  0  0  0  0  0
   45.6263   61.4066   30.4742 H   0  0  0  0  0  0  0  0  0  0  0  0
   44.3465   57.0528   30.7653 H   0  0  0  0  0  0  0  0  0  0  0  0
  1 28  1  0  0  0  0
  1 29  1  0  0  0  0
  2  3  1  0  0  0  0
  2  6  1  0  0  0  0
  2  1  1  0  0  0  0
  2 30  1  6  0  0  0
  3  4  2  0  0  0  0
  3  5  1  0  0  0  0
  5 31  1  0  0  0  0
  6  7  1  0  0  0  0
  6 32  1  0  0  0  0
  6 33  1  0  0  0  0
  7  8  1  0  0  0  0
  7 34  1  0  0  0  0
  7 35  1  0  0  0  0
  8  9  1  0  0  0  0
  8 10  1  0  0  0  0
  8 36  1  1  0  0  0
  9 37  1  0  0  0  0
  9 38  1  0  0  0  0
  9 39  1  0  0  0  0
 10 40  1  0  0  0  0
 10 41  1  0  0  0  0
 11 12  1  0  0  0  0
 11 13  1  1  0  0  0
 11 10  1  0  0  0  0
 11 42  1  0  0  0  0
 12 17  1  0  0  0  0
 13 14  1  0  0  0  0
 13 15  1  1  0  0  0
 13 43  1  0  0  0  0
 14 44  1  0  0  0  0
 15 16  1  0  0  0  0
 15 17  1  1  0  0  0
 15 45  1  0  0  0  0
 16 46  1  0  0  0  0
 17 18  1  0  0  0  0
 17 47  1  1  0  0  0
 18 19  1  0  0  0  0
 18 27  1  0  0  0  0
 19 20  2  0  0  0  0
 19 48  1  0  0  0  0
 20 21  1  0  0  0  0
 21 22  1  0  0  0  0
 21 27  2  0  0  0  0
 22 23  1  0  0  0  0
 22 24  2  0  0  0  0
 23 49  1  0  0  0  0
 23 50  1  0  0  0  0
 24 25  1  0  0  0  0
 25 26  2  0  0  0  0
 25 51  1  0  0  0  0
 26 27  1  0  0  0  0
M  END
>  <HEADER>
RNA                                     20-AUG-09   3IQR

>  <TITLE>
SAM-I RIBOSWITCH FROM T. TENCONGENSIS VARIANT A94G BOUND WITH SAM

>  <COMPND>
MOL_ID: 1;
2 MOLECULE: SAM-I RIBOSWITCH;
3 CHAIN: A;
4 ENGINEERED: YES

>  <SOURCE>
MOL_ID: 1;
2 SYNTHETIC: YES

>  <KEYWDS>
RIBOSWITCH, SAM, KINK-TURN, PSUEDOKNOT, RNA

>  <EXPDTA>
X-RAY DIFFRACTION

>  <AUTHOR>
R.K.MONTANGE,R.T.BATEY

>  <REVDAT>
1   04-AUG-10 3IQR    0

>  <JRNL>
AUTH   C.D.STODDARD,R.K.MONTANGE,S.P.HENNELLY,R.P.RAMBO,
AUTH 2 K.Y.SANBONMATSU,R.T.BATEY
TITL   FREE STATE CONFORMATIONAL SAMPLING OF THE SAM-I RIBOSWITCH
TITL 2 APTAMER DOMAIN.
REF    STRUCTURE                     V.  18   787 2010
REFN                   ISSN 0969-2126
PMID   20637415
DOI    10.1016/J.STR.2010.04.006

>  <REMARK>
2
2 RESOLUTION.    2.55 ANGSTROMS.
3
3 REFINEMENT.
3   PROGRAM     : CNS 1.2
3   AUTHORS     : BRUNGER,ADAMS,CLORE,DELANO,GROS,GROSSE-
3               : KUNSTLEVE,JIANG,KUSZEWSKI,NILGES,PANNU,
3               : READ,RICE,SIMONSON,WARREN
3
3  REFINEMENT TARGET : ENGH & HUBER
3
3  DATA USED IN REFINEMENT.
3   RESOLUTION RANGE HIGH (ANGSTROMS) : 2.55
3   RESOLUTION RANGE LOW  (ANGSTROMS) : 19.93
3   DATA CUTOFF            (SIGMA(F)) : NULL
3   DATA CUTOFF HIGH         (ABS(F)) : NULL
3   DATA CUTOFF LOW          (ABS(F)) : NULL
3   COMPLETENESS (WORKING+TEST)   (%) : 98.9
3   NUMBER OF REFLECTIONS             : 18805
3
3  FIT TO DATA USED IN REFINEMENT.
3   CROSS-VALIDATION METHOD          : NULL
3   FREE R VALUE TEST SET SELECTION  : NULL
3   R VALUE            (WORKING SET) : 0.249
3   FREE R VALUE                     : 0.293
3   FREE R VALUE TEST SET SIZE   (%) : 9.600
3   FREE R VALUE TEST SET COUNT      : 1814
3   ESTIMATED ERROR OF FREE R VALUE  : 0.007
3
3  FIT IN THE HIGHEST RESOLUTION BIN.
3   TOTAL NUMBER OF BINS USED           : NULL
3   BIN RESOLUTION RANGE HIGH       (A) : 2.55
3   BIN RESOLUTION RANGE LOW        (A) : 2.71
3   BIN COMPLETENESS (WORKING+TEST) (%) : 99.60
3   REFLECTIONS IN BIN    (WORKING SET) : 2864
3   BIN R VALUE           (WORKING SET) : 0.4080
3   BIN FREE R VALUE                    : 0.4260
3   BIN FREE R VALUE TEST SET SIZE  (%) : 9.20
3   BIN FREE R VALUE TEST SET COUNT     : 291
3   ESTIMATED ERROR OF BIN FREE R VALUE : 0.025
3
3  NUMBER OF NON-HYDROGEN ATOMS USED IN REFINEMENT.
3   PROTEIN ATOMS            : 0
3   NUCLEIC ACID ATOMS       : 2030
3   HETEROGEN ATOMS          : 36
3   SOLVENT ATOMS            : 48
3
3  B VALUES.
3   FROM WILSON PLOT           (A**2) : 32.20
3   MEAN B VALUE      (OVERALL, A**2) : 56.66
3   OVERALL ANISOTROPIC B VALUE.
3    B11 (A**2) : 11.52000
3    B22 (A**2) : 11.52000
3    B33 (A**2) : -23.04000
3    B12 (A**2) : 0.00000
3    B13 (A**2) : 0.00000
3    B23 (A**2) : 0.00000
3
3  ESTIMATED COORDINATE ERROR.
3   ESD FROM LUZZATI PLOT        (A) : 0.41
3   ESD FROM SIGMAA              (A) : 0.71
3   LOW RESOLUTION CUTOFF        (A) : 5.00
3
3  CROSS-VALIDATED ESTIMATED COORDINATE ERROR.
3   ESD FROM C-V LUZZATI PLOT    (A) : 0.49
3   ESD FROM C-V SIGMAA          (A) : 0.80
3
3  RMS DEVIATIONS FROM IDEAL VALUES.
3   BOND LENGTHS                 (A) : 0.008
3   BOND ANGLES            (DEGREES) : 1.40
3   DIHEDRAL ANGLES        (DEGREES) : 16.60
3   IMPROPER ANGLES        (DEGREES) : 3.50
3
3  ISOTROPIC THERMAL MODEL : NULL
3
3  ISOTROPIC THERMAL FACTOR RESTRAINTS.    RMS    SIGMA
3   MAIN-CHAIN BOND              (A**2) : 1.250 ; 1.500
3   MAIN-CHAIN ANGLE             (A**2) : 2.540 ; 2.000
3   SIDE-CHAIN BOND              (A**2) : 1.430 ; 2.000
3   SIDE-CHAIN ANGLE             (A**2) : 2.210 ; 2.500
3
3  BULK SOLVENT MODELING.
3   METHOD USED : FLAT MODEL
3   KSOL        : 0.35
3   BSOL        : 31.32
3
3  NCS MODEL : NULL
3
3  NCS RESTRAINTS.                         RMS   SIGMA/WEIGHT
3   GROUP  1  POSITIONAL            (A) : NULL  ; NULL
3   GROUP  1  B-FACTOR           (A**2) : NULL  ; NULL
3
3  PARAMETER FILE  1  : WATER_REP.PARAM
3  PARAMETER FILE  2  : ION2.PARAM
3  PARAMETER FILE  3  : DNA-RNA_REP_REVISE.PARAM
3  PARAMETER FILE  4  : SAM3.PARAM
3  PARAMETER FILE  5  : NULL
3  TOPOLOGY FILE  1   : DNA-RNA_REP_REVISE.TOP
3  TOPOLOGY FILE  2   : ION2.TOP
3  TOPOLOGY FILE  3   : WATER.TOP
3  TOPOLOGY FILE  4   : SAM3.TOP
3  TOPOLOGY FILE  5   : NULL
3
3  OTHER REFINEMENT REMARKS: BULK SOLVENT MODEL USED
4
4 3IQR COMPLIES WITH FORMAT V. 3.20, 01-DEC-08
100
100 THIS ENTRY HAS BEEN PROCESSED BY RCSB ON 25-AUG-09.
100 THE RCSB ID CODE IS RCSB054747.
200
200 EXPERIMENTAL DETAILS
200  EXPERIMENT TYPE                : X-RAY DIFFRACTION
200  DATE OF DATA COLLECTION        : 04-AUG-06
200  TEMPERATURE           (KELVIN) : 100
200  PH                             : 7.0
200  NUMBER OF CRYSTALS USED        : 1
200
200  SYNCHROTRON              (Y/N) : N
200  RADIATION SOURCE               : ROTATING ANODE
200  BEAMLINE                       : NULL
200  X-RAY GENERATOR MODEL          : RIGAKU RU200
200  MONOCHROMATIC OR LAUE    (M/L) : M
200  WAVELENGTH OR RANGE        (A) : 1.5418
200  MONOCHROMATOR                  : NI FILTER
200  OPTICS                         : NULL
200
200  DETECTOR TYPE                  : AREA DETECTOR
200  DETECTOR MANUFACTURER          : RIGAKU RAXIS IV++
200  INTENSITY-INTEGRATION SOFTWARE : D*TREK
200  DATA SCALING SOFTWARE          : D*TREK
200
200  NUMBER OF UNIQUE REFLECTIONS   : 18805
200  RESOLUTION RANGE HIGH      (A) : 2.550
200  RESOLUTION RANGE LOW       (A) : 20.000
200  REJECTION CRITERIA  (SIGMA(I)) : 2.000
200
200 OVERALL.
200  COMPLETENESS FOR RANGE     (%) : 99.3
200  DATA REDUNDANCY                : 4.980
200  R MERGE                    (I) : 0.05300
200  R SYM                      (I) : NULL
200  <I/SIGMA(I)> FOR THE DATA SET  : 16.4000
200
200 IN THE HIGHEST RESOLUTION SHELL.
200  HIGHEST RESOLUTION SHELL, RANGE HIGH (A) : 2.55
200  HIGHEST RESOLUTION SHELL, RANGE LOW  (A) : 2.65
200  COMPLETENESS FOR SHELL     (%) : 99.9
200  DATA REDUNDANCY IN SHELL       : 4.81
200  R MERGE FOR SHELL          (I) : 0.34300
200  R SYM FOR SHELL            (I) : NULL
200  <I/SIGMA(I)> FOR SHELL         : 4.100
200
200 DIFFRACTION PROTOCOL: SINGLE WAVELENGTH
200 METHOD USED TO DETERMINE THE STRUCTURE: MOLECULAR REPLACEMENT
200 SOFTWARE USED: CNS
200 STARTING MODEL: PDB ENTRY 2GIS
200
200 REMARK: NULL
280
280 CRYSTAL
280 SOLVENT CONTENT, VS   (%): 50.02
280 MATTHEWS COEFFICIENT, VM (ANGSTROMS**3/DA): 2.46
280
280 CRYSTALLIZATION CONDITIONS: PH 7.0, HANGING DROP, TEMPERATURE 303K
290
290 CRYSTALLOGRAPHIC SYMMETRY
290 SYMMETRY OPERATORS FOR SPACE GROUP: P 43 21 2
290
290      SYMOP   SYMMETRY
290     NNNMMM   OPERATOR
290       1555   X,Y,Z
290       2555   -X,-Y,Z+1/2
290       3555   -Y+1/2,X+1/2,Z+3/4
290       4555   Y+1/2,-X+1/2,Z+1/4
290       5555   -X+1/2,Y+1/2,-Z+3/4
290       6555   X+1/2,-Y+1/2,-Z+1/4
290       7555   Y,X,-Z
290       8555   -Y,-X,-Z+1/2
290
290     WHERE NNN -> OPERATOR NUMBER
290           MMM -> TRANSLATION VECTOR
290
290 CRYSTALLOGRAPHIC SYMMETRY TRANSFORMATIONS
290 THE FOLLOWING TRANSFORMATIONS OPERATE ON THE ATOM/HETATM
290 RECORDS IN THIS ENTRY TO PRODUCE CRYSTALLOGRAPHICALLY
290 RELATED MOLECULES.
290   SMTRY1   1  1.000000  0.000000  0.000000        0.00000
290   SMTRY2   1  0.000000  1.000000  0.000000        0.00000
290   SMTRY3   1  0.000000  0.000000  1.000000        0.00000
290   SMTRY1   2 -1.000000  0.000000  0.000000        0.00000
290   SMTRY2   2  0.000000 -1.000000  0.000000        0.00000
290   SMTRY3   2  0.000000  0.000000  1.000000       78.78400
290   SMTRY1   3  0.000000 -1.000000  0.000000       30.90200
290   SMTRY2   3  1.000000  0.000000  0.000000       30.90200
290   SMTRY3   3  0.000000  0.000000  1.000000      118.17600
290   SMTRY1   4  0.000000  1.000000  0.000000       30.90200
290   SMTRY2   4 -1.000000  0.000000  0.000000       30.90200
290   SMTRY3   4  0.000000  0.000000  1.000000       39.39200
290   SMTRY1   5 -1.000000  0.000000  0.000000       30.90200
290   SMTRY2   5  0.000000  1.000000  0.000000       30.90200
290   SMTRY3   5  0.000000  0.000000 -1.000000      118.17600
290   SMTRY1   6  1.000000  0.000000  0.000000       30.90200
290   SMTRY2   6  0.000000 -1.000000  0.000000       30.90200
290   SMTRY3   6  0.000000  0.000000 -1.000000       39.39200
290   SMTRY1   7  0.000000  1.000000  0.000000        0.00000
290   SMTRY2   7  1.000000  0.000000  0.000000        0.00000
290   SMTRY3   7  0.000000  0.000000 -1.000000        0.00000
290   SMTRY1   8  0.000000 -1.000000  0.000000        0.00000
290   SMTRY2   8 -1.000000  0.000000  0.000000        0.00000
290   SMTRY3   8  0.000000  0.000000 -1.000000       78.78400
290
290 REMARK: NULL
300
300 BIOMOLECULE: 1, 2
300 SEE REMARK 350 FOR THE AUTHOR PROVIDED AND/OR PROGRAM
300 GENERATED ASSEMBLY INFORMATION FOR THE STRUCTURE IN
300 THIS ENTRY. THE REMARK MAY ALSO PROVIDE INFORMATION ON
300 BURIED SURFACE AREA.
350
350 COORDINATES FOR A COMPLETE MULTIMER REPRESENTING THE KNOWN
350 BIOLOGICALLY SIGNIFICANT OLIGOMERIZATION STATE OF THE
350 MOLECULE CAN BE GENERATED BY APPLYING BIOMT TRANSFORMATIONS
350 GIVEN BELOW.  BOTH NON-CRYSTALLOGRAPHIC AND
350 CRYSTALLOGRAPHIC OPERATIONS ARE GIVEN.
350
350 BIOMOLECULE: 1
350 AUTHOR DETERMINED BIOLOGICAL UNIT: MONOMERIC
350 APPLY THE FOLLOWING TO CHAINS: A
350   BIOMT1   1  1.000000  0.000000  0.000000        0.00000
350   BIOMT2   1  0.000000  1.000000  0.000000        0.00000
350   BIOMT3   1  0.000000  0.000000  1.000000        0.00000
350
350 BIOMOLECULE: 2
350 SOFTWARE DETERMINED QUATERNARY STRUCTURE: DIMERIC
350 SOFTWARE USED: PISA
350 TOTAL BURIED SURFACE AREA: 5340 ANGSTROM**2
350 SURFACE AREA OF THE COMPLEX: 28260 ANGSTROM**2
350 CHANGE IN SOLVENT FREE ENERGY: -47.0 KCAL/MOL
350 APPLY THE FOLLOWING TO CHAINS: A
350   BIOMT1   1  1.000000  0.000000  0.000000        0.00000
350   BIOMT2   1  0.000000  1.000000  0.000000        0.00000
350   BIOMT3   1  0.000000  0.000000  1.000000        0.00000
350   BIOMT1   2  0.000000  1.000000  0.000000        0.00000
350   BIOMT2   2  1.000000  0.000000  0.000000        0.00000
350   BIOMT3   2  0.000000  0.000000 -1.000000        0.00000
500
500 GEOMETRY AND STEREOCHEMISTRY
500 SUBTOPIC: CLOSE CONTACTS IN SAME ASYMMETRIC UNIT
500
500 THE FOLLOWING ATOMS ARE IN CLOSE CONTACT.
500
500  ATM1  RES C  SSEQI   ATM2  RES C  SSEQI           DISTANCE
500   O2     U A    88     O2'  SAM A   301              2.00
500   O2     U A    88     O3'  SAM A   301              2.03
500   O2'    A A    20     OP2    G A    21              2.18
500
500 REMARK: NULL
500
500 GEOMETRY AND STEREOCHEMISTRY
500 SUBTOPIC: CLOSE CONTACTS
500
500 THE FOLLOWING ATOMS THAT ARE RELATED BY CRYSTALLOGRAPHIC
500 SYMMETRY ARE IN CLOSE CONTACT.  AN ATOM LOCATED WITHIN 0.15
500 ANGSTROMS OF A SYMMETRY RELATED ATOM IS ASSUMED TO BE ON A
500 SPECIAL POSITION AND IS, THEREFORE, LISTED IN REMARK 375
500 INSTEAD OF REMARK 500.  ATOMS WITH NON-BLANK ALTERNATE
500 LOCATION INDICATORS ARE NOT INCLUDED IN THE CALCULATIONS.
500
500 DISTANCE CUTOFF:
500 2.2 ANGSTROMS FOR CONTACTS NOT INVOLVING HYDROGEN ATOMS
500 1.6 ANGSTROMS FOR CONTACTS INVOLVING HYDROGEN ATOMS
500
500  ATM1  RES C  SSEQI   ATM2  RES C  SSEQI  SSYMOP   DISTANCE
500   N2     G A    94     N2     G A    94     8775     1.65
500
500 REMARK: NULL
500
500 GEOMETRY AND STEREOCHEMISTRY
500 SUBTOPIC: COVALENT BOND LENGTHS
500
500 THE STEREOCHEMICAL PARAMETERS OF THE FOLLOWING RESIDUES
500 HAVE VALUES WHICH DEVIATE FROM EXPECTED VALUES BY MORE
500 THAN 6*RMSD (M=MODEL NUMBER; RES=RESIDUE NAME; C=CHAIN
500 IDENTIFIER; SSEQ=SEQUENCE NUMBER; I=INSERTION CODE).
500
500 STANDARD TABLE:
500 FORMAT: (10X,I3,1X,2(A3,1X,A1,I4,A1,1X,A4,3X),1X,F6.3)
500
500 EXPECTED VALUES PROTEIN: ENGH AND HUBER, 1999
500 EXPECTED VALUES NUCLEIC ACID: CLOWNEY ET AL 1996
500
500  M RES CSSEQI ATM1   RES CSSEQI ATM2   DEVIATION
500      G A   1   P       G A   1   OP3    -0.077
500      A A  75   P       A A  75   O5'    -0.068
500      A A  75   O5'     A A  75   C5'    -0.071
500
500 REMARK: NULL
500
500 GEOMETRY AND STEREOCHEMISTRY
500 SUBTOPIC: COVALENT BOND ANGLES
500
500 THE STEREOCHEMICAL PARAMETERS OF THE FOLLOWING RESIDUES
500 HAVE VALUES WHICH DEVIATE FROM EXPECTED VALUES BY MORE
500 THAN 6*RMSD (M=MODEL NUMBER; RES=RESIDUE NAME; C=CHAIN
500 IDENTIFIER; SSEQ=SEQUENCE NUMBER; I=INSERTION CODE).
500
500 STANDARD TABLE:
500 FORMAT: (10X,I3,1X,A3,1X,A1,I4,A1,3(1X,A4,2X),12X,F5.1)
500
500 EXPECTED VALUES PROTEIN: ENGH AND HUBER, 1999
500 EXPECTED VALUES NUCLEIC ACID: CLOWNEY ET AL 1996
500
500  M RES CSSEQI ATM1   ATM2   ATM3
500      A A   9   C2' -  C3' -  O3' ANGL. DEV. =  12.6 DEGREES
500      A A  20   C2' -  C3' -  O3' ANGL. DEV. =  12.1 DEGREES
500      G A  35   N9  -  C1' -  C2' ANGL. DEV. =   8.0 DEGREES
500      A A  51   C4' -  C3' -  C2' ANGL. DEV. =   6.0 DEGREES
500      U A  63   C2' -  C3' -  O3' ANGL. DEV. =  12.6 DEGREES
500      G A  68   N9  -  C1' -  C2' ANGL. DEV. =   9.0 DEGREES
500      G A  74   C4' -  C3' -  C2' ANGL. DEV. =  -6.4 DEGREES
500      A A  75   O5' -  P   -  OP1 ANGL. DEV. =  -7.4 DEGREES
500      A A  75   O4' -  C1' -  N9  ANGL. DEV. =  -7.8 DEGREES
500
500 REMARK: NULL
500
500 GEOMETRY AND STEREOCHEMISTRY
500 SUBTOPIC: PLANAR GROUPS
500
500 PLANAR GROUPS IN THE FOLLOWING RESIDUES HAVE A TOTAL
500 RMS DISTANCE OF ALL ATOMS FROM THE BEST-FIT PLANE
500 BY MORE THAN AN EXPECTED VALUE OF 6*RMSD, WITH AN
500 RMSD 0.02 ANGSTROMS, OR AT LEAST ONE ATOM HAS
500 AN RMSD GREATER THAN THIS VALUE
500 (M=MODEL NUMBER; RES=RESIDUE NAME; C=CHAIN IDENTIFIER;
500 SSEQ=SEQUENCE NUMBER; I=INSERTION CODE).
500
500  M RES CSSEQI        RMS     TYPE
500      G A  19         0.05    SIDE CHAIN
500      G A  68         0.07    SIDE CHAIN
500
500 REMARK: NULL
500
500 GEOMETRY AND STEREOCHEMISTRY
500 SUBTOPIC: CHIRAL CENTERS
500
500 UNEXPECTED CONFIGURATION OF THE FOLLOWING CHIRAL
500 CENTER(S) USING IMPROPER CA--C--CB--N CHIRALITY
500 FOR AMINO ACIDS AND C1'--O4'--N1(N9)--C2' FOR
500 NUCLEIC ACIDS OR EQUIVALENT ANGLE
500 M=MODEL NUMBER; RES=RESIDUE NAME; C=CHAIN
500 IDENTIFIER; SSEQ=SEQUENCE NUMBER; I=INSERTION CODE
500
500 STANDARD TABLE:
500 FORMAT: (10X,I3,1X,A3,1X,A1,I4,A1,6X,F5.1,6X,A1,10X,A1,3X,A16)
500
500  M RES CSSEQI    IMPROPER   EXPECTED   FOUND DETAILS
500      G A  68       -24.5      D          D   OUTSIDE RANGE
500
500 REMARK: NULL
620
620 METAL COORDINATION
620 (M=MODEL NUMBER; RES=RESIDUE NAME; C=CHAIN IDENTIFIER;
620 SSEQ=SEQUENCE NUMBER; I=INSERTION CODE):
620
620 COORDINATION ANGLES FOR:  M RES CSSEQI METAL
620                              BA A 204  BA
620 N RES CSSEQI ATOM
620 1   U A  64   O2'
620 2   U A  67   O4  143.2
620 3   U A  64   O2   70.0 144.7
620 N                    1     2
620
620 COORDINATION ANGLES FOR:  M RES CSSEQI METAL
620                              BA A 206  BA
620 N RES CSSEQI ATOM
620 1   A A  10   OP2
620 2   U A  64   OP2 117.4
620 3   U A  63   O3'  91.3  43.5
620 N                    1     2
620
620 COORDINATION ANGLES FOR:  M RES CSSEQI METAL
620                              BA A 201  BA
620 N RES CSSEQI ATOM
620 1   G A  50   O6
620 2 HOH A 440   O    79.9
620 N                    1
800
800 SITE
800 SITE_IDENTIFIER: AC1
800 EVIDENCE_CODE: SOFTWARE
800 SITE_DESCRIPTION: BINDING SITE FOR RESIDUE BA A 201
800
800 SITE_IDENTIFIER: AC2
800 EVIDENCE_CODE: SOFTWARE
800 SITE_DESCRIPTION: BINDING SITE FOR RESIDUE BA A 202
800
800 SITE_IDENTIFIER: AC3
800 EVIDENCE_CODE: SOFTWARE
800 SITE_DESCRIPTION: BINDING SITE FOR RESIDUE BA A 203
800
800 SITE_IDENTIFIER: AC4
800 EVIDENCE_CODE: SOFTWARE
800 SITE_DESCRIPTION: BINDING SITE FOR RESIDUE BA A 204
800
800 SITE_IDENTIFIER: AC5
800 EVIDENCE_CODE: SOFTWARE
800 SITE_DESCRIPTION: BINDING SITE FOR RESIDUE BA A 206
800
800 SITE_IDENTIFIER: AC6
800 EVIDENCE_CODE: SOFTWARE
800 SITE_DESCRIPTION: BINDING SITE FOR RESIDUE BA A 207
800
800 SITE_IDENTIFIER: AC7
800 EVIDENCE_CODE: SOFTWARE
800 SITE_DESCRIPTION: BINDING SITE FOR RESIDUE BA A 208
800
800 SITE_IDENTIFIER: AC8
800 EVIDENCE_CODE: SOFTWARE
800 SITE_DESCRIPTION: BINDING SITE FOR RESIDUE BA A 209
800
800 SITE_IDENTIFIER: AC9
800 EVIDENCE_CODE: SOFTWARE
800 SITE_DESCRIPTION: BINDING SITE FOR RESIDUE SAM A 301
900
900 RELATED ENTRIES
900 RELATED ID: 2GIS   RELATED DB: PDB
900 RELATED ID: 3IQP   RELATED DB: PDB
900 SAM-I RIBOSWITCH FROM T. TENCONGENSIS VARIANT A94G APO FORM
900 RELATED ID: 3IQN   RELATED DB: PDB
900 SAM-I RIBOSWITCH FROM T. TENCONGENSIS VARIANT A94G/A46G
900 BOUND WITH SAM

>  <DBREF>
3IQR A    1    94  PDB    3IQR     3IQR             1     94

>  <SEQRES>
1 A   94    G   G   C   U   U   A   U   C   A   A   G   A   G
2 A   94    A   G   G   U   G   G   A   G   G   G   A   C   U
3 A   94    G   G   C   C   C   G   A   U   G   A   A   A   C
4 A   94    C   C   G   G   C   A   A   C   C   A   G   A   A
5 A   94    A   U   G   G   U   G   C   C   A   A   U   U   C
6 A   94    C   U   G   C   A   G   C   G   G   A   A   A   C
7 A   94    G   U   U   G   A   A   A   G   A   U   G   A   G
8 A   94    C   C   G

>  <HET>
BA  A 201       1
BA  A 202       1
BA  A 203       1
BA  A 204       1
BA  A 205       1
BA  A 206       1
BA  A 207       1
BA  A 208       1
BA  A 209       1
SAM  A 301      27

>  <HETNAM>
BA BARIUM ION
SAM S-ADENOSYLMETHIONINE

>  <FORMUL>
2   BA    9(BA 2+)
11  SAM    C15 H22 N6 O5 S
12  HOH   *48(H2 O)

>  <LINK>
O6    G A  18                BA    BA A 202     1555   1555  2.66
O6    G A  74                BA    BA A 203     1555   1555  2.72
O2'   U A  64                BA    BA A 204     1555   1555  2.87
OP2   A A  10                BA    BA A 206     1555   1555  2.90
O4    U A  67                BA    BA A 204     1555   1555  3.04
O2    U A  64                BA    BA A 204     1555   1555  3.06
O6    G A  50                BA    BA A 201     1555   1555  3.07
OP2   U A  64                BA    BA A 206     1555   1555  3.20
O6    G A  86                BA    BA A 207     1555   1555  3.30
O3'   U A  63                BA    BA A 206     1555   1555  3.43
O6    G A   1                BA    BA A 209     1555   1555  3.48
BA    BA A 201                 O   HOH A 440     1555   1555  3.50

>  <SITE>
1 AC1  1   G A  50
1 AC2  1   G A  18
1 AC3  1   G A  74
1 AC4  2   U A  64    U A  67
1 AC5  4   A A   9    A A  10    U A  63    U A  64
1 AC6  1   G A  86
1 AC7  2   A A  46    G A  55
1 AC8  1   G A   1
1 AC9 12   A A   6    U A   7    G A  11    A A  45
2 AC9 12   A A  46    C A  47    U A  57    G A  58
3 AC9 12   C A  59    U A  88    G A  89  HOH A 430

>  <ORIGX1>
1.000000  0.000000  0.000000        0.00000

>  <ORIGX2>
0.000000  1.000000  0.000000        0.00000

>  <ORIGX3>
0.000000  0.000000  1.000000        0.00000

>  <SCALE1>
0.016180  0.000000  0.000000        0.00000

>  <SCALE2>
0.000000  0.016180  0.000000        0.00000

>  <SCALE3>
0.000000  0.000000  0.006346        0.00000

$$$$
