@<TRIPOS>MOLECULE
ligand.pdb
 27 29 0 0 0
SMALL
GASTEIGER

@<TRIPOS>ATOM
      1 N          48.3070   57.4420   28.6680 N.3     1  UNL1       -0.1208
      2 CA         48.3360   56.5750   27.4910 C.3     1  UNL1        0.1952
      3 C          47.1510   56.8800   26.6210 C.2     1  UNL1        0.3819
      4 O          46.9620   56.2350   25.5950 O.co2   1  UNL1       -0.2441
      5 OXT        46.3540   57.7450   26.9610 O.co2   1  UNL1       -0.2441
      6 C          48.2820   55.1070   27.9120 C.3     1  UNL1        0.0414
      7 C          49.2810   54.8800   29.0320 C.3     1  UNL1        0.0503
      8 S          49.2850   53.1780   29.6800 S.3     1  UNL1       -0.1761
      9 C          48.4590   52.1990   28.3910 C.3     1  UNL1        0.0590
     10 C          47.7330   53.1110   30.7620 C.3     1  UNL1        0.0805
     11 C          47.7870   53.6870   32.2390 C.3     1  UNL1        0.1602
     12 O          47.4270   55.0340   32.4470 O.3     1  UNL1       -0.3324
     13 C          48.9280   53.3860   33.1260 C.3     1  UNL1        0.2144
     14 O          49.6980   52.2710   32.6750 O.3     1  UNL1       -0.2176
     15 C          49.6450   54.8120   32.9930 C.3     1  UNL1        0.2336
     16 O          50.6610   54.9460   33.9410 O.3     1  UNL1       -0.2155
     17 C          48.4630   55.7390   33.2700 C.3     1  UNL1        0.2409
     18 N          48.3950   57.1910   32.8180 N.ar    1  UNL1       -0.2693
     19 C          49.1840   58.3040   32.9010 C.ar    1  UNL1        0.1816
     20 N          48.5880   59.3370   32.3680 N.ar    1  UNL1       -0.2193
     21 C          47.3870   58.9630   31.8930 C.ar    1  UNL1        0.1518
     22 C          46.3160   59.6200   31.2260 C.ar    1  UNL1        0.1919
     23 N          46.3770   60.9680   30.9360 N.pl3   1  UNL1       -0.1054
     24 N          45.2320   58.8980   30.8800 N.ar    1  UNL1       -0.2040
     25 C          45.1590   57.5850   31.1140 C.ar    1  UNL1        0.2016
     26 N          46.1140   56.9510   31.7880 N.ar    1  UNL1       -0.2048
     27 C          47.2380   57.5790   32.1680 C.ar    1  UNL1        0.1692
@<TRIPOS>BOND
     1     2     3    1
     2     2     6    1
     3     2     1    1
     4     3     4   ar
     5     3     5   ar
     6     6     7    1
     7     7     8    1
     8     8     9    1
     9     8    10    1
    10    11    12    1
    11    11    13    1
    12    11    10    1
    13    12    17    1
    14    13    14    1
    15    13    15    1
    16    15    16    1
    17    15    17    1
    18    17    18    1
    19    18    19   ar
    20    18    27   ar
    21    19    20   ar
    22    20    21   ar
    23    21    22   ar
    24    21    27   ar
    25    22    23    1
    26    22    24   ar
    27    24    25   ar
    28    25    26   ar
    29    26    27   ar
