ligand.pdb
 OpenBabel03221817253D

 17 16  0  0  0  0  0  0  0  0999 V2000
    0.9419    0.0717   -0.0471 P   0  0  2  0  0  0  0  0  0  0  0  0
    0.9337    0.3030    1.3438 H   0  0  0  0  0  0  0  0  0  0  0  0
    0.8629   -1.3575   -0.5869 O   0  0  0  0  0  0  0  0  0  0  0  0
   -0.7880    0.0867   -0.0360 O   0  0  0  0  0  0  0  0  0  0  0  0
    2.6718    0.0568   -0.0583 O   0  0  0  0  0  0  0  0  0  0  0  0
    3.2439   -0.7419    0.9771 C   0  0  0  0  0  0  0  0  0  0  0  0
    4.7597   -0.6980    0.8973 C   0  0  0  0  0  0  0  0  0  0  0  0
    5.2809   -1.3072   -0.3948 C   0  0  0  0  0  0  0  0  0  0  0  0
    6.7048   -1.3073   -0.3761 O   0  0  0  0  0  0  0  0  0  0  0  0
   -1.0503   -0.4922   -0.7819 H   0  0  0  0  0  0  0  0  0  0  0  0
    2.8847   -1.7724    0.8959 H   0  0  0  0  0  0  0  0  0  0  0  0
    2.9214   -0.3388    1.9434 H   0  0  0  0  0  0  0  0  0  0  0  0
    5.1905   -1.2293    1.7535 H   0  0  0  0  0  0  0  0  0  0  0  0
    5.1120    0.3390    0.9696 H   0  0  0  0  0  0  0  0  0  0  0  0
    4.9467   -0.7495   -1.2735 H   0  0  0  0  0  0  0  0  0  0  0  0
    4.9497   -2.3455   -0.4968 H   0  0  0  0  0  0  0  0  0  0  0  0
    6.9946   -0.3794   -0.3701 H   0  0  0  0  0  0  0  0  0  0  0  0
  1  4  1  0  0  0  0
  1  5  1  0  0  0  0
  1  3  2  0  0  0  0
  1  2  1  1  0  0  0
  4 10  1  0  0  0  0
  5  6  1  0  0  0  0
  6  7  1  0  0  0  0
  6 11  1  0  0  0  0
  6 12  1  0  0  0  0
  7  8  1  0  0  0  0
  7 13  1  0  0  0  0
  7 14  1  0  0  0  0
  8  9  1  0  0  0  0
  8 15  1  0  0  0  0
  8 16  1  0  0  0  0
  9 17  1  0  0  0  0
M  END
$$$$
