REMARK  6 active torsions:
REMARK  status: ('A' for Active; 'I' for Inactive)
REMARK    1  A    between atoms: P_1  and  O_4 
REMARK    2  A    between atoms: P_1  and  O_5 
REMARK    3  A    between atoms: O_5  and  C_6 
REMARK    4  A    between atoms: C_6  and  C_7 
REMARK    5  A    between atoms: C_7  and  C_8 
REMARK    6  A    between atoms: C_8  and  O_9 
ROOT
ATOM      1  O   UNL d   1       2.672   0.057  -0.058  0.00  0.00    -0.321 OA
ENDROOT
BRANCH   1   2
ATOM      2  P   UNL d   1       0.942   0.072  -0.047  0.00  0.00     0.228 P 
ATOM      3  O   UNL d   1       0.863  -1.357  -0.587  0.00  0.00    -0.655 OA
ATOM      4  H   UNL d   1       0.934   0.303   1.344  0.00  0.00     0.152 HD
BRANCH   2   5
ATOM      5  O   UNL d   1      -0.788   0.087  -0.036  0.00  0.00    -0.331 OA
ATOM      6  H   UNL d   1      -1.050  -0.492  -0.782  0.00  0.00     0.220 HD
ENDBRANCH   2   5
ENDBRANCH   1   2
BRANCH   1   7
ATOM      7  C   UNL d   1       3.244  -0.742   0.977  0.00  0.00     0.180 C 
BRANCH   7   8
ATOM      8  C   UNL d   1       4.760  -0.698   0.897  0.00  0.00     0.053 C 
BRANCH   8   9
ATOM      9  C   UNL d   1       5.281  -1.307  -0.395  0.00  0.00     0.166 C 
BRANCH   9  10
ATOM     10  O   UNL d   1       6.705  -1.307  -0.376  0.00  0.00    -0.401 OA
ATOM     11  H   UNL d   1       6.995  -0.379  -0.370  0.00  0.00     0.209 HD
ENDBRANCH   9  10
ENDBRANCH   8   9
ENDBRANCH   7   8
ENDBRANCH   1   7
TORSDOF 6
