@<TRIPOS>MOLECULE
ligand.pdb
 17 16 0 0 0
SMALL
GASTEIGER

@<TRIPOS>ATOM
      1 P           0.9419    0.0717   -0.0471 P.3     1  UNL1        0.3187
      2 H           0.9337    0.3030    1.3438 H       1  UNL1        0.1593
      3 O           0.8629   -1.3575   -0.5869 O.2     1  UNL1       -0.2620
      4 O          -0.7880    0.0867   -0.0360 O.3     1  UNL1       -0.3259
      5 O           2.6718    0.0568   -0.0583 O.3     1  UNL1       -0.3099
      6 C           3.2439   -0.7419    0.9771 C.3     1  UNL1        0.0588
      7 C           4.7597   -0.6980    0.8973 C.3     1  UNL1       -0.0057
      8 C           5.2809   -1.3072   -0.3948 C.3     1  UNL1        0.0463
      9 O           6.7048   -1.3073   -0.3761 O.3     1  UNL1       -0.3949
     10 H          -1.0503   -0.4922   -0.7819 H       1  UNL1        0.2195
     11 H           2.8847   -1.7724    0.8959 H       1  UNL1        0.0565
     12 H           2.9214   -0.3388    1.9434 H       1  UNL1        0.0565
     13 H           5.1905   -1.2293    1.7535 H       1  UNL1        0.0310
     14 H           5.1120    0.3390    0.9696 H       1  UNL1        0.0310
     15 H           4.9467   -0.7495   -1.2735 H       1  UNL1        0.0558
     16 H           4.9497   -2.3455   -0.4968 H       1  UNL1        0.0558
     17 H           6.9946   -0.3794   -0.3701 H       1  UNL1        0.2094
@<TRIPOS>BOND
     1     1     4    1
     2     1     5    1
     3     1     3    2
     4     1     2    1
     5     4    10    1
     6     5     6    1
     7     6     7    1
     8     6    11    1
     9     6    12    1
    10     7     8    1
    11     7    13    1
    12     7    14    1
    13     8     9    1
    14     8    15    1
    15     8    16    1
    16     9    17    1
