@<TRIPOS>MOLECULE
3C44_PAR_A_24
 87 90 0 0 0
SMALL
GASTEIGER

@<TRIPOS>ATOM
      1 C           4.8996   16.3246    3.0373 C.3     1  UNL1        0.1776
      2 H           4.5465   16.6248    4.0178 H       1  UNL1        0.0927
      3 O           3.7489   16.2258    2.1889 O.3     1  UNL1       -0.3422
      4 C           2.6842   15.3477    2.6093 C.3     1  UNL1        0.1055
      5 H           1.8328   15.6509    1.9871 H       1  UNL1        0.0639
      6 C           2.2571   15.5498    4.1118 C.3     1  UNL1        0.0355
      7 H           3.1180   15.3407    4.7583 H       1  UNL1        0.0485
      8 C           1.1421   14.5940    4.5565 C.3     1  UNL1       -0.0175
      9 C           1.5101   13.1470    4.2291 C.3     1  UNL1        0.0351
     10 H           2.4632   12.9071    4.7198 H       1  UNL1        0.0485
     11 N           0.5509   12.1977    4.7998 N.3     1  UNL1       -0.3250
     12 C           1.6969   13.0129    2.6913 C.3     1  UNL1        0.0990
     13 H           0.8154   13.4032    2.1654 H       1  UNL1        0.0636
     14 C           2.9544   13.8336    2.3050 C.3     1  UNL1        0.1166
     15 H           3.7559   13.4987    2.9751 H       1  UNL1        0.0650
     16 O           3.4807   13.4902    1.0194 O.3     1  UNL1       -0.3402
     17 C           2.8668   14.0269   -0.1359 C.3     1  UNL1        0.1884
     18 H           2.7055   15.1035   -0.0209 H       1  UNL1        0.0938
     19 C           3.7587   13.7498   -1.3611 C.3     1  UNL1        0.1345
     20 H           4.0994   12.7096   -1.3578 H       1  UNL1        0.0671
     21 O           4.9285   14.5627   -1.4679 O.3     1  UNL1       -0.3841
     22 C           2.7557   13.9981   -2.4894 C.3     1  UNL1        0.1205
     23 H           3.0868   13.5744   -3.4440 H       1  UNL1        0.0651
     24 O           2.6445   15.4247   -2.6212 O.3     1  UNL1       -0.3410
     25 C           1.9572   15.9309   -3.7698 C.3     1  UNL1        0.1776
     26 H           2.2836   15.3870   -4.6665 H       1  UNL1        0.0927
     27 C           2.3248   17.4426   -3.8812 C.3     1  UNL1        0.0853
     28 H           3.4041   17.5289   -4.0508 H       1  UNL1        0.0535
     29 N           2.0240   18.1396   -2.6008 N.3     1  UNL1       -0.3211
     30 C           1.5589   18.0836   -5.0590 C.3     1  UNL1        0.1033
     31 H           1.7524   19.1638   -5.0405 H       1  UNL1        0.0637
     32 O           2.0507   17.6457   -6.3297 O.3     1  UNL1       -0.3874
     33 C           0.0455   17.8503   -4.9382 C.3     1  UNL1        0.1100
     34 H          -0.4542   18.1381   -5.8715 H       1  UNL1        0.0646
     35 O          -0.5034   18.6860   -3.9094 O.3     1  UNL1       -0.3866
     36 C          -0.2609   16.3572   -4.6511 C.3     1  UNL1        0.1022
     37 H          -0.0755   15.7737   -5.5625 H       1  UNL1        0.0636
     38 O           0.5496   15.8033   -3.5991 O.3     1  UNL1       -0.3425
     39 C          -1.7416   16.1943   -4.2288 C.3     1  UNL1        0.0222
     40 N          -2.1444   14.7919   -4.0673 N.3     1  UNL1       -0.3276
     41 C           1.4903   13.3514   -1.8978 C.3     1  UNL1        0.1135
     42 H           0.5887   13.9106   -2.1455 H       1  UNL1        0.0647
     43 O           1.6187   13.3864   -0.4478 O.3     1  UNL1       -0.3405
     44 C           1.2966   11.8957   -2.3479 C.3     1  UNL1        0.0730
     45 O           2.3833   11.0539   -1.9751 O.3     1  UNL1       -0.3924
     46 O           1.8002   11.6322    2.3274 O.3     1  UNL1       -0.3876
     47 N           1.8160   16.9194    4.4036 N.3     1  UNL1       -0.3250
     48 C           5.8553   17.4621    2.5653 C.3     1  UNL1        0.0853
     49 H           5.2916   18.3965    2.6084 H       1  UNL1        0.0535
     50 N           6.2945   17.3079    1.1561 N.3     1  UNL1       -0.3211
     51 C           7.0563   17.5213    3.5385 C.3     1  UNL1        0.1033
     52 H           7.8049   18.1931    3.1008 H       1  UNL1        0.0637
     53 O           6.6870   18.1521    4.7677 O.3     1  UNL1       -0.3874
     54 C           7.7004   16.1416    3.7647 C.3     1  UNL1        0.1109
     55 H           8.4101   16.1822    4.5966 H       1  UNL1        0.0646
     56 O           8.4541   15.7685    2.5946 O.3     1  UNL1       -0.3865
     57 C           6.6758   15.0173    4.0209 C.3     1  UNL1        0.1129
     58 H           7.1635   14.0603    3.7902 H       1  UNL1        0.0647
     59 O           5.5697   15.0723    3.1106 O.3     1  UNL1       -0.3415
     60 C           6.1808   14.8918    5.4732 C.3     1  UNL1        0.0730
     61 O           5.5994   16.1004    5.9630 O.3     1  UNL1       -0.3924
     62 H           0.1938   14.8591    4.0752 H       1  UNL1        0.0297
     63 H           0.9871   14.7006    5.6423 H       1  UNL1        0.0297
     64 H          -0.0014   11.7799    4.0501 H       1  UNL1        0.1185
     65 H          -0.0914   12.6512    5.4445 H       1  UNL1        0.1185
     66 H           4.6503   15.4678   -1.2339 H       1  UNL1        0.2101
     67 H           1.1234   17.7734   -2.2654 H       1  UNL1        0.1187
     68 H           1.8837   19.1338   -2.7442 H       1  UNL1        0.1187
     69 H           1.8452   16.7075   -6.4715 H       1  UNL1        0.2100
     70 H          -0.2075   19.6000   -4.0667 H       1  UNL1        0.2100
     71 H          -2.3974   16.6669   -4.9687 H       1  UNL1        0.0448
     72 H          -1.9057   16.6899   -3.2651 H       1  UNL1        0.0448
     73 H          -2.0585   14.2926   -4.9468 H       1  UNL1        0.1183
     74 H          -3.1253   14.7596   -3.7944 H       1  UNL1        0.1183
     75 H           0.3925   11.4721   -1.8993 H       1  UNL1        0.0584
     76 H           1.1963   11.8436   -3.4369 H       1  UNL1        0.0584
     77 H           2.3625   11.0034   -0.9982 H       1  UNL1        0.2095
     78 H           2.5614   11.2601    2.8013 H       1  UNL1        0.2100
     79 H           2.5761   17.5819    4.2602 H       1  UNL1        0.1185
     80 H           1.5163   17.0114    5.3748 H       1  UNL1        0.1185
     81 H           6.7479   16.3966    1.0563 H       1  UNL1        0.1187
     82 H           6.9866   18.0187    0.9265 H       1  UNL1        0.1187
     83 H           6.2630   17.4849    5.3517 H       1  UNL1        0.2100
     84 H           9.0147   16.5206    2.3387 H       1  UNL1        0.2100
     85 H           5.4192   14.1057    5.5331 H       1  UNL1        0.0584
     86 H           7.0086   14.6301    6.1394 H       1  UNL1        0.0584
     87 H           4.8552   15.8391    6.5416 H       1  UNL1        0.2095
@<TRIPOS>BOND
     1     1    48    1
     2     1    59    1
     3     1     3    1
     4     1     2    1
     5     4     6    1
     6     4     5    1
     7     4     3    1
     8     6     7    1
     9     6     8    1
    10     6    47    1
    11     8     9    1
    12     8    62    1
    13     8    63    1
    14     9    12    1
    15     9    11    1
    16     9    10    1
    17    11    64    1
    18    11    65    1
    19    12    13    1
    20    12    14    1
    21    12    46    1
    22    14     4    1
    23    14    16    1
    24    14    15    1
    25    16    17    1
    26    17    18    1
    27    17    19    1
    28    17    43    1
    29    19    22    1
    30    19    21    1
    31    19    20    1
    32    21    66    1
    33    22    23    1
    34    22    24    1
    35    22    41    1
    36    25    27    1
    37    25    38    1
    38    25    26    1
    39    25    24    1
    40    27    30    1
    41    27    29    1
    42    27    28    1
    43    29    67    1
    44    29    68    1
    45    30    32    1
    46    30    31    1
    47    32    69    1
    48    33    30    1
    49    33    34    1
    50    33    35    1
    51    35    70    1
    52    36    33    1
    53    36    37    1
    54    36    38    1
    55    36    39    1
    56    39    40    1
    57    39    71    1
    58    39    72    1
    59    40    73    1
    60    40    74    1
    61    41    43    1
    62    41    44    1
    63    41    42    1
    64    44    45    1
    65    44    75    1
    66    44    76    1
    67    45    77    1
    68    46    78    1
    69    47    79    1
    70    47    80    1
    71    48    51    1
    72    48    50    1
    73    48    49    1
    74    50    81    1
    75    50    82    1
    76    51    54    1
    77    51    53    1
    78    51    52    1
    79    53    83    1
    80    54    55    1
    81    54    56    1
    82    54    57    1
    83    56    84    1
    84    57    59    1
    85    57    60    1
    86    57    58    1
    87    60    61    1
    88    60    85    1
    89    60    86    1
    90    61    87    1
