REMARK  22 active torsions:
REMARK  status: ('A' for Active; 'I' for Inactive)
REMARK    1  A    between atoms: C_1  and  O_2 
REMARK    2  A    between atoms: C_3  and  O_2 
REMARK    3  A    between atoms: C_4  and  N_32 
REMARK    4  A    between atoms: C_6  and  N_7 
REMARK    5  A    between atoms: C_8  and  O_31 
REMARK    6  A    between atoms: C_9  and  O_10 
REMARK    7  A    between atoms: O_10  and  C_11 
REMARK    8  A    between atoms: C_12  and  O_13 
REMARK    9  A    between atoms: C_14  and  O_15 
REMARK   10  A    between atoms: C_16  and  O_15 
REMARK   11  A    between atoms: C_17  and  N_18 
REMARK   12  A    between atoms: C_19  and  O_20 
REMARK   13  A    between atoms: C_21  and  O_22 
REMARK   14  A    between atoms: C_23  and  C_25 
REMARK   15  A    between atoms: C_25  and  N_26 
REMARK   16  A    between atoms: C_27  and  C_29 
REMARK   17  A    between atoms: C_29  and  O_30 
REMARK   18  A    between atoms: C_33  and  N_34 
REMARK   19  A    between atoms: C_35  and  O_36 
REMARK   20  A    between atoms: C_37  and  O_38 
REMARK   21  A    between atoms: C_39  and  C_41 
REMARK   22  A    between atoms: C_41  and  O_42 
ROOT
ATOM      1  C   UNL d   1       2.684  15.348   2.609  0.00  0.00     0.189 C 
ATOM      2  C   UNL d   1       2.257  15.550   4.112  0.00  0.00     0.251 C 
ATOM      3  C   UNL d   1       1.142  14.594   4.556  0.00  0.00     0.076 C 
ATOM      4  C   UNL d   1       1.510  13.147   4.229  0.00  0.00     0.251 C 
ATOM      5  C   UNL d   1       1.697  13.013   2.691  0.00  0.00     0.182 C 
ATOM      6  C   UNL d   1       2.954  13.834   2.305  0.00  0.00     0.186 C 
ENDROOT
BRANCH   6   7
ATOM      7  O   UNL d   1       3.481  13.490   1.019  0.00  0.00    -0.348 OA
BRANCH   7   8
ATOM      8  C   UNL d   1       2.867  14.027  -0.136  0.00  0.00     0.292 C 
ATOM      9  C   UNL d   1       3.759  13.750  -1.361  0.00  0.00     0.205 C 
ATOM     10  C   UNL d   1       2.756  13.998  -2.489  0.00  0.00     0.189 C 
ATOM     11  C   UNL d   1       1.490  13.351  -1.898  0.00  0.00     0.180 C 
ATOM     12  O   UNL d   1       1.619  13.386  -0.448  0.00  0.00    -0.348 OA
BRANCH   9  13
ATOM     13  O   UNL d   1       4.928  14.563  -1.468  0.00  0.00    -0.388 OA
ATOM     14  H   UNL d   1       4.650  15.468  -1.234  0.00  0.00     0.210 HD
ENDBRANCH   9  13
BRANCH  10  15
ATOM     15  O   UNL d   1       2.644  15.425  -2.621  0.00  0.00    -0.348 OA
BRANCH  15  16
ATOM     16  C   UNL d   1       1.957  15.931  -3.770  0.00  0.00     0.296 C 
ATOM     17  C   UNL d   1       2.325  17.443  -3.881  0.00  0.00     0.303 C 
ATOM     18  C   UNL d   1       1.559  18.084  -5.059  0.00  0.00     0.187 C 
ATOM     19  C   UNL d   1       0.045  17.850  -4.938  0.00  0.00     0.179 C 
ATOM     20  C   UNL d   1      -0.261  16.357  -4.651  0.00  0.00     0.183 C 
ATOM     21  O   UNL d   1       0.550  15.803  -3.599  0.00  0.00    -0.349 OA
BRANCH  17  22
ATOM     22  N   UNL d   1       2.024  18.140  -2.601  0.00  0.00     0.090 N 
ATOM     23  H   UNL d   1       1.123  17.773  -2.265  0.00  0.00     0.313 HD
ATOM     24  H   UNL d   1       1.884  19.134  -2.744  0.00  0.00     0.313 HD
ENDBRANCH  17  22
BRANCH  18  25
ATOM     25  O   UNL d   1       2.051  17.646  -6.330  0.00  0.00    -0.391 OA
ATOM     26  H   UNL d   1       1.845  16.707  -6.471  0.00  0.00     0.210 HD
ENDBRANCH  18  25
BRANCH  19  27
ATOM     27  O   UNL d   1      -0.503  18.686  -3.909  0.00  0.00    -0.390 OA
ATOM     28  H   UNL d   1      -0.207  19.600  -4.067  0.00  0.00     0.210 HD
ENDBRANCH  19  27
BRANCH  20  29
ATOM     29  C   UNL d   1      -1.742  16.194  -4.229  0.00  0.00     0.301 C 
BRANCH  29  30
ATOM     30  N   UNL d   1      -2.144  14.792  -4.067  0.00  0.00     0.080 N 
ATOM     31  H   UNL d   1      -2.058  14.293  -4.947  0.00  0.00     0.312 HD
ATOM     32  H   UNL d   1      -3.125  14.760  -3.794  0.00  0.00     0.312 HD
ENDBRANCH  29  30
ENDBRANCH  20  29
ENDBRANCH  15  16
ENDBRANCH  10  15
BRANCH  11  33
ATOM     33  C   UNL d   1       1.297  11.896  -2.348  0.00  0.00     0.198 C 
BRANCH  33  34
ATOM     34  O   UNL d   1       2.383  11.054  -1.975  0.00  0.00    -0.398 OA
ATOM     35  H   UNL d   1       2.362  11.003  -0.998  0.00  0.00     0.209 HD
ENDBRANCH  33  34
ENDBRANCH  11  33
ENDBRANCH   7   8
ENDBRANCH   6   7
BRANCH   5  36
ATOM     36  O   UNL d   1       1.800  11.632   2.327  0.00  0.00    -0.391 OA
ATOM     37  H   UNL d   1       2.561  11.260   2.801  0.00  0.00     0.210 HD
ENDBRANCH   5  36
BRANCH   1  38
ATOM     38  O   UNL d   1       3.749  16.226   2.189  0.00  0.00    -0.349 OA
BRANCH  38  39
ATOM     39  C   UNL d   1       4.900  16.325   3.037  0.00  0.00     0.296 C 
ATOM     40  C   UNL d   1       5.855  17.462   2.565  0.00  0.00     0.303 C 
ATOM     41  C   UNL d   1       7.056  17.521   3.538  0.00  0.00     0.187 C 
ATOM     42  C   UNL d   1       7.700  16.142   3.765  0.00  0.00     0.180 C 
ATOM     43  C   UNL d   1       6.676  15.017   4.021  0.00  0.00     0.179 C 
ATOM     44  O   UNL d   1       5.570  15.072   3.111  0.00  0.00    -0.349 OA
BRANCH  40  45
ATOM     45  N   UNL d   1       6.295  17.308   1.156  0.00  0.00     0.090 N 
ATOM     46  H   UNL d   1       6.748  16.397   1.056  0.00  0.00     0.313 HD
ATOM     47  H   UNL d   1       6.987  18.019   0.926  0.00  0.00     0.313 HD
ENDBRANCH  40  45
BRANCH  41  48
ATOM     48  O   UNL d   1       6.687  18.152   4.768  0.00  0.00    -0.391 OA
ATOM     49  H   UNL d   1       6.263  17.485   5.352  0.00  0.00     0.210 HD
ENDBRANCH  41  48
BRANCH  42  50
ATOM     50  O   UNL d   1       8.454  15.768   2.595  0.00  0.00    -0.390 OA
ATOM     51  H   UNL d   1       9.015  16.521   2.339  0.00  0.00     0.210 HD
ENDBRANCH  42  50
BRANCH  43  52
ATOM     52  C   UNL d   1       6.181  14.892   5.473  0.00  0.00     0.198 C 
BRANCH  52  53
ATOM     53  O   UNL d   1       5.599  16.100   5.963  0.00  0.00    -0.398 OA
ATOM     54  H   UNL d   1       4.855  15.839   6.542  0.00  0.00     0.209 HD
ENDBRANCH  52  53
ENDBRANCH  43  52
ENDBRANCH  38  39
ENDBRANCH   1  38
BRANCH   4  55
ATOM     55  N   UNL d   1       0.551  12.198   4.800  0.00  0.00     0.085 N 
ATOM     56  H   UNL d   1      -0.001  11.780   4.050  0.00  0.00     0.313 HD
ATOM     57  H   UNL d   1      -0.091  12.651   5.444  0.00  0.00     0.313 HD
ENDBRANCH   4  55
BRANCH   2  58
ATOM     58  N   UNL d   1       1.816  16.919   4.404  0.00  0.00     0.085 N 
ATOM     59  H   UNL d   1       2.576  17.582   4.260  0.00  0.00     0.313 HD
ATOM     60  H   UNL d   1       1.516  17.011   5.375  0.00  0.00     0.313 HD
ENDBRANCH   2  58
TORSDOF 22
