3C44_PAR_A_24
 OpenBabel03221817283D

 87 90  0  0  1  0  0  0  0  0999 V2000
    4.8996   16.3246    3.0373 C   0  0  2  0  0  0  0  0  0  0  0  0
    4.5465   16.6248    4.0178 H   0  0  0  0  0  0  0  0  0  0  0  0
    3.7489   16.2258    2.1889 O   0  0  0  0  0  0  0  0  0  0  0  0
    2.6842   15.3477    2.6093 C   0  0  2  0  0  0  0  0  0  0  0  0
    1.8328   15.6509    1.9871 H   0  0  0  0  0  0  0  0  0  0  0  0
    2.2571   15.5498    4.1118 C   0  0  2  0  0  0  0  0  0  0  0  0
    3.1180   15.3407    4.7583 H   0  0  0  0  0  0  0  0  0  0  0  0
    1.1421   14.5940    4.5565 C   0  0  0  0  0  0  0  0  0  0  0  0
    1.5101   13.1470    4.2291 C   0  0  1  0  0  0  0  0  0  0  0  0
    2.4632   12.9071    4.7198 H   0  0  0  0  0  0  0  0  0  0  0  0
    0.5509   12.1977    4.7998 N   0  0  0  0  0  0  0  0  0  0  0  0
    1.6969   13.0129    2.6913 C   0  0  1  0  0  0  0  0  0  0  0  0
    0.8154   13.4032    2.1654 H   0  0  0  0  0  0  0  0  0  0  0  0
    2.9544   13.8336    2.3050 C   0  0  1  0  0  0  0  0  0  0  0  0
    3.7559   13.4987    2.9751 H   0  0  0  0  0  0  0  0  0  0  0  0
    3.4807   13.4902    1.0194 O   0  0  0  0  0  0  0  0  0  0  0  0
    2.8668   14.0269   -0.1359 C   0  0  1  0  0  0  0  0  0  0  0  0
    2.7055   15.1035   -0.0209 H   0  0  0  0  0  0  0  0  0  0  0  0
    3.7587   13.7498   -1.3611 C   0  0  2  0  0  0  0  0  0  0  0  0
    4.0994   12.7096   -1.3578 H   0  0  0  0  0  0  0  0  0  0  0  0
    4.9285   14.5627   -1.4679 O   0  0  0  0  0  0  0  0  0  0  0  0
    2.7557   13.9981   -2.4894 C   0  0  2  0  0  0  0  0  0  0  0  0
    3.0868   13.5744   -3.4440 H   0  0  0  0  0  0  0  0  0  0  0  0
    2.6445   15.4247   -2.6212 O   0  0  0  0  0  0  0  0  0  0  0  0
    1.9572   15.9309   -3.7698 C   0  0  2  0  0  0  0  0  0  0  0  0
    2.2836   15.3870   -4.6665 H   0  0  0  0  0  0  0  0  0  0  0  0
    2.3248   17.4426   -3.8812 C   0  0  2  0  0  0  0  0  0  0  0  0
    3.4041   17.5289   -4.0508 H   0  0  0  0  0  0  0  0  0  0  0  0
    2.0240   18.1396   -2.6008 N   0  0  0  0  0  0  0  0  0  0  0  0
    1.5589   18.0836   -5.0590 C   0  0  1  0  0  0  0  0  0  0  0  0
    1.7524   19.1638   -5.0405 H   0  0  0  0  0  0  0  0  0  0  0  0
    2.0507   17.6457   -6.3297 O   0  0  0  0  0  0  0  0  0  0  0  0
    0.0455   17.8503   -4.9382 C   0  0  2  0  0  0  0  0  0  0  0  0
   -0.4542   18.1381   -5.8715 H   0  0  0  0  0  0  0  0  0  0  0  0
   -0.5034   18.6860   -3.9094 O   0  0  0  0  0  0  0  0  0  0  0  0
   -0.2609   16.3572   -4.6511 C   0  0  1  0  0  0  0  0  0  0  0  0
   -0.0755   15.7737   -5.5625 H   0  0  0  0  0  0  0  0  0  0  0  0
    0.5496   15.8033   -3.5991 O   0  0  0  0  0  0  0  0  0  0  0  0
   -1.7416   16.1943   -4.2288 C   0  0  0  0  0  0  0  0  0  0  0  0
   -2.1444   14.7919   -4.0673 N   0  0  0  0  0  0  0  0  0  0  0  0
    1.4903   13.3514   -1.8978 C   0  0  2  0  0  0  0  0  0  0  0  0
    0.5887   13.9106   -2.1455 H   0  0  0  0  0  0  0  0  0  0  0  0
    1.6187   13.3864   -0.4478 O   0  0  0  0  0  0  0  0  0  0  0  0
    1.2966   11.8957   -2.3479 C   0  0  0  0  0  0  0  0  0  0  0  0
    2.3833   11.0539   -1.9751 O   0  0  0  0  0  0  0  0  0  0  0  0
    1.8002   11.6322    2.3274 O   0  0  0  0  0  0  0  0  0  0  0  0
    1.8160   16.9194    4.4036 N   0  0  0  0  0  0  0  0  0  0  0  0
    5.8553   17.4621    2.5653 C   0  0  2  0  0  0  0  0  0  0  0  0
    5.2916   18.3965    2.6084 H   0  0  0  0  0  0  0  0  0  0  0  0
    6.2945   17.3079    1.1561 N   0  0  0  0  0  0  0  0  0  0  0  0
    7.0563   17.5213    3.5385 C   0  0  1  0  0  0  0  0  0  0  0  0
    7.8049   18.1931    3.1008 H   0  0  0  0  0  0  0  0  0  0  0  0
    6.6870   18.1521    4.7677 O   0  0  0  0  0  0  0  0  0  0  0  0
    7.7004   16.1416    3.7647 C   0  0  2  0  0  0  0  0  0  0  0  0
    8.4101   16.1822    4.5966 H   0  0  0  0  0  0  0  0  0  0  0  0
    8.4541   15.7685    2.5946 O   0  0  0  0  0  0  0  0  0  0  0  0
    6.6758   15.0173    4.0209 C   0  0  2  0  0  0  0  0  0  0  0  0
    7.1635   14.0603    3.7902 H   0  0  0  0  0  0  0  0  0  0  0  0
    5.5697   15.0723    3.1106 O   0  0  0  0  0  0  0  0  0  0  0  0
    6.1808   14.8918    5.4732 C   0  0  0  0  0  0  0  0  0  0  0  0
    5.5994   16.1004    5.9630 O   0  0  0  0  0  0  0  0  0  0  0  0
    0.1938   14.8591    4.0752 H   0  0  0  0  0  0  0  0  0  0  0  0
    0.9871   14.7006    5.6423 H   0  0  0  0  0  0  0  0  0  0  0  0
   -0.0014   11.7799    4.0501 H   0  0  0  0  0  0  0  0  0  0  0  0
   -0.0914   12.6512    5.4445 H   0  0  0  0  0  0  0  0  0  0  0  0
    4.6503   15.4678   -1.2339 H   0  0  0  0  0  0  0  0  0  0  0  0
    1.1234   17.7734   -2.2654 H   0  0  0  0  0  0  0  0  0  0  0  0
    1.8837   19.1338   -2.7442 H   0  0  0  0  0  0  0  0  0  0  0  0
    1.8452   16.7075   -6.4715 H   0  0  0  0  0  0  0  0  0  0  0  0
   -0.2075   19.6000   -4.0667 H   0  0  0  0  0  0  0  0  0  0  0  0
   -2.3974   16.6669   -4.9687 H   0  0  0  0  0  0  0  0  0  0  0  0
   -1.9057   16.6899   -3.2651 H   0  0  0  0  0  0  0  0  0  0  0  0
   -2.0585   14.2926   -4.9468 H   0  0  0  0  0  0  0  0  0  0  0  0
   -3.1253   14.7596   -3.7944 H   0  0  0  0  0  0  0  0  0  0  0  0
    0.3925   11.4721   -1.8993 H   0  0  0  0  0  0  0  0  0  0  0  0
    1.1963   11.8436   -3.4369 H   0  0  0  0  0  0  0  0  0  0  0  0
    2.3625   11.0034   -0.9982 H   0  0  0  0  0  0  0  0  0  0  0  0
    2.5614   11.2601    2.8013 H   0  0  0  0  0  0  0  0  0  0  0  0
    2.5761   17.5819    4.2602 H   0  0  0  0  0  0  0  0  0  0  0  0
    1.5163   17.0114    5.3748 H   0  0  0  0  0  0  0  0  0  0  0  0
    6.7479   16.3966    1.0563 H   0  0  0  0  0  0  0  0  0  0  0  0
    6.9866   18.0187    0.9265 H   0  0  0  0  0  0  0  0  0  0  0  0
    6.2630   17.4849    5.3517 H   0  0  0  0  0  0  0  0  0  0  0  0
    9.0147   16.5206    2.3387 H   0  0  0  0  0  0  0  0  0  0  0  0
    5.4192   14.1057    5.5331 H   0  0  0  0  0  0  0  0  0  0  0  0
    7.0086   14.6301    6.1394 H   0  0  0  0  0  0  0  0  0  0  0  0
    4.8552   15.8391    6.5416 H   0  0  0  0  0  0  0  0  0  0  0  0
  1 48  1  6  0  0  0
  1 59  1  0  0  0  0
  1  3  1  0  0  0  0
  1  2  1  0  0  0  0
  4  6  1  1  0  0  0
  4  5  1  0  0  0  0
  4  3  1  0  0  0  0
  6  7  1  1  0  0  0
  6  8  1  0  0  0  0
  6 47  1  0  0  0  0
  8  9  1  0  0  0  0
  8 62  1  0  0  0  0
  8 63  1  0  0  0  0
  9 12  1  6  0  0  0
  9 11  1  0  0  0  0
  9 10  1  0  0  0  0
 11 64  1  0  0  0  0
 11 65  1  0  0  0  0
 12 13  1  0  0  0  0
 12 14  1  6  0  0  0
 12 46  1  0  0  0  0
 14  4  1  1  0  0  0
 14 16  1  0  0  0  0
 14 15  1  0  0  0  0
 16 17  1  0  0  0  0
 17 18  1  0  0  0  0
 17 19  1  6  0  0  0
 17 43  1  0  0  0  0
 19 22  1  6  0  0  0
 19 21  1  0  0  0  0
 19 20  1  0  0  0  0
 21 66  1  0  0  0  0
 22 23  1  0  0  0  0
 22 24  1  0  0  0  0
 22 41  1  1  0  0  0
 25 27  1  6  0  0  0
 25 38  1  0  0  0  0
 25 26  1  0  0  0  0
 25 24  1  0  0  0  0
 27 30  1  6  0  0  0
 27 29  1  0  0  0  0
 27 28  1  0  0  0  0
 29 67  1  0  0  0  0
 29 68  1  0  0  0  0
 30 32  1  0  0  0  0
 30 31  1  1  0  0  0
 32 69  1  0  0  0  0
 33 30  1  6  0  0  0
 33 34  1  0  0  0  0
 33 35  1  0  0  0  0
 35 70  1  0  0  0  0
 36 33  1  6  0  0  0
 36 37  1  0  0  0  0
 36 38  1  0  0  0  0
 36 39  1  0  0  0  0
 39 40  1  0  0  0  0
 39 71  1  0  0  0  0
 39 72  1  0  0  0  0
 40 73  1  0  0  0  0
 40 74  1  0  0  0  0
 41 43  1  0  0  0  0
 41 44  1  0  0  0  0
 41 42  1  6  0  0  0
 44 45  1  0  0  0  0
 44 75  1  0  0  0  0
 44 76  1  0  0  0  0
 45 77  1  0  0  0  0
 46 78  1  0  0  0  0
 47 79  1  0  0  0  0
 47 80  1  0  0  0  0
 48 51  1  1  0  0  0
 48 50  1  0  0  0  0
 48 49  1  0  0  0  0
 50 81  1  0  0  0  0
 50 82  1  0  0  0  0
 51 54  1  1  0  0  0
 51 53  1  0  0  0  0
 51 52  1  0  0  0  0
 53 83  1  0  0  0  0
 54 55  1  0  0  0  0
 54 56  1  0  0  0  0
 54 57  1  1  0  0  0
 56 84  1  0  0  0  0
 57 59  1  0  0  0  0
 57 60  1  0  0  0  0
 57 58  1  6  0  0  0
 60 61  1  0  0  0  0
 60 85  1  0  0  0  0
 60 86  1  0  0  0  0
 61 87  1  0  0  0  0
M  END
$$$$
