REMARK  23 active torsions:
REMARK  status: ('A' for Active; 'I' for Inactive)
REMARK    1  A    between atoms: C_1  and  O_12 
REMARK    2  A    between atoms: C_2  and  N_11 
REMARK    3  A    between atoms: C_3  and  O_4 
REMARK    4  A    between atoms: C_5  and  O_6 
REMARK    5  A    between atoms: C_7  and  C_9 
REMARK    6  A    between atoms: C_9  and  O_10 
REMARK    7  A    between atoms: C_13  and  O_12 
REMARK    8  A    between atoms: C_14  and  N_36 
REMARK    9  A    between atoms: C_16  and  N_17 
REMARK       I    between atoms: N_17  and  C_18 
REMARK   10  A    between atoms: C_18  and  C_20 
REMARK   11  A    between atoms: C_20  and  C_21 
REMARK   12  A    between atoms: C_20  and  O_24 
REMARK   13  A    between atoms: C_21  and  C_22 
REMARK   14  A    between atoms: C_22  and  N_23 
REMARK   15  A    between atoms: C_25  and  O_28 
REMARK   16  A    between atoms: C_26  and  O_27 
REMARK   17  A    between atoms: O_28  and  C_29 
REMARK   18  A    between atoms: C_29  and  C_30 
REMARK   19  A    between atoms: C_30  and  N_31 
REMARK   20  A    between atoms: N_31  and  C_32 
REMARK   21  A    between atoms: C_32  and  C_33 
REMARK   22  A    between atoms: C_33  and  C_34 
REMARK   23  A    between atoms: C_34  and  N_35 
ROOT
ATOM      1  C   UNL d   1       1.684   2.084   1.761  0.00  0.00     0.189 C 
ATOM      2  C   UNL d   1       2.500   0.826   2.178  0.00  0.00     0.251 C 
ATOM      3  C   UNL d   1       3.802   0.785   1.385  0.00  0.00     0.066 C 
ATOM      4  C   UNL d   1       4.668   2.000   1.709  0.00  0.00     0.118 C 
ATOM      5  C   UNL d   1       3.924   3.353   1.561  0.00  0.00     0.175 C 
ATOM      6  C   UNL d   1       2.510   3.321   2.204  0.00  0.00     0.180 C 
ENDROOT
BRANCH   1   7
ATOM      7  O   UNL d   1       0.383   1.991   2.377  0.00  0.00    -0.349 OA
BRANCH   7   8
ATOM      8  C   UNL d   1      -0.534   3.025   1.986  0.00  0.00     0.296 C 
ATOM      9  C   UNL d   1      -1.943   2.761   2.598  0.00  0.00     0.303 C 
ATOM     10  C   UNL d   1      -2.866   3.945   2.203  0.00  0.00     0.187 C 
ATOM     11  C   UNL d   1      -2.867   4.182   0.681  0.00  0.00     0.180 C 
ATOM     12  C   UNL d   1      -1.432   4.263   0.118  0.00  0.00     0.179 C 
ATOM     13  O   UNL d   1      -0.619   3.160   0.563  0.00  0.00    -0.349 OA
BRANCH   9  14
ATOM     14  N   UNL d   1      -2.524   1.459   2.190  0.00  0.00     0.090 N 
ATOM     15  H   UNL d   1      -2.551   1.442   1.163  0.00  0.00     0.313 HD
ATOM     16  H   UNL d   1      -3.490   1.392   2.502  0.00  0.00     0.313 HD
ENDBRANCH   9  14
BRANCH  10  17
ATOM     17  O   UNL d   1      -2.524   5.171   2.859  0.00  0.00    -0.391 OA
ATOM     18  H   UNL d   1      -1.800   5.025   3.494  0.00  0.00     0.210 HD
ENDBRANCH  10  17
BRANCH  11  19
ATOM     19  O   UNL d   1      -3.554   3.107   0.018  0.00  0.00    -0.390 OA
ATOM     20  H   UNL d   1      -4.461   3.074   0.368  0.00  0.00     0.210 HD
ENDBRANCH  11  19
BRANCH  12  21
ATOM     21  C   UNL d   1      -0.765   5.633   0.370  0.00  0.00     0.198 C 
BRANCH  21  22
ATOM     22  O   UNL d   1       0.508   5.698  -0.280  0.00  0.00    -0.398 OA
ATOM     23  H   UNL d   1       0.344   5.747  -1.237  0.00  0.00     0.209 HD
ENDBRANCH  21  22
ENDBRANCH  12  21
ENDBRANCH   7   8
ENDBRANCH   1   7
BRANCH   2  24
ATOM     24  N   UNL d   1       1.788  -0.448   2.005  0.00  0.00     0.085 N 
ATOM     25  H   UNL d   1       0.852  -0.325   2.401  0.00  0.00     0.313 HD
ATOM     26  H   UNL d   1       1.636  -0.632   1.016  0.00  0.00     0.313 HD
ENDBRANCH   2  24
BRANCH   6  27
ATOM     27  O   UNL d   1       1.837   4.557   1.927  0.00  0.00    -0.390 OA
ATOM     28  H   UNL d   1       1.763   4.690   0.958  0.00  0.00     0.210 HD
ENDBRANCH   6  27
BRANCH   5  29
ATOM     29  O   UNL d   1       4.643   4.401   2.247  0.00  0.00    -0.379 OA
BRANCH  29  30
ATOM     30  C   UNL d   1       5.852   4.880   1.657  0.00  0.00     0.198 C 
BRANCH  30  31
ATOM     31  C   UNL d   1       5.743   5.338   0.197  0.00  0.00     0.295 C 
BRANCH  31  32
ATOM     32  N   UNL d   1       4.841   6.477   0.107  0.00  0.00     0.085 N 
ATOM     33  H   UNL d   1       5.198   7.255   0.660  0.00  0.00     0.315 HD
BRANCH  32  34
ATOM     34  C   UNL d   1       4.587   6.882  -1.265  0.00  0.00     0.271 C 
BRANCH  34  35
ATOM     35  C   UNL d   1       3.728   8.141  -1.228  0.00  0.00     0.059 C 
BRANCH  35  36
ATOM     36  C   UNL d   1       3.422   8.633  -2.636  0.00  0.00     0.268 C 
BRANCH  36  37
ATOM     37  N   UNL d   1       2.638   9.861  -2.570  0.00  0.00     0.078 N 
ATOM     38  H   UNL d   1       1.781   9.691  -2.045  0.00  0.00     0.312 HD
ATOM     39  H   UNL d   1       2.360  10.139  -3.508  0.00  0.00     0.312 HD
ENDBRANCH  36  37
ENDBRANCH  35  36
ENDBRANCH  34  35
ENDBRANCH  32  34
ENDBRANCH  31  32
ENDBRANCH  30  31
ENDBRANCH  29  30
ENDBRANCH   5  29
BRANCH   4  40
ATOM     40  N   UNL d   1       5.934   1.933   0.977  0.00  0.00    -0.352 N 
ATOM     41  C   UNL d   1       6.068   1.969  -0.397  0.00  0.00     0.246 C 
ATOM     42  O   UNL d   1       5.126   2.042  -1.181  0.00  0.00    -0.271 OA
ATOM     43  H   UNL d   1       6.774   1.947   1.537  0.00  0.00     0.163 HD
BRANCH  41  44
ATOM     44  C   UNL d   1       7.526   2.035  -0.890  0.00  0.00     0.211 C 
BRANCH  44  45
ATOM     45  C   UNL d   1       8.328   0.836  -0.384  0.00  0.00     0.071 C 
BRANCH  45  46
ATOM     46  C   UNL d   1       9.789   0.831  -0.816  0.00  0.00     0.269 C 
BRANCH  46  47
ATOM     47  N   UNL d   1      10.519   1.978  -0.278  0.00  0.00     0.078 N 
ATOM     48  H   UNL d   1      10.233   2.817  -0.784  0.00  0.00     0.312 HD
ATOM     49  H   UNL d   1      11.508   1.865  -0.510  0.00  0.00     0.312 HD
ENDBRANCH  46  47
ENDBRANCH  45  46
ENDBRANCH  44  45
BRANCH  44  50
ATOM     50  O   UNL d   1       7.583   2.087  -2.316  0.00  0.00    -0.386 OA
ATOM     51  H   UNL d   1       6.673   2.294  -2.616  0.00  0.00     0.210 HD
ENDBRANCH  44  50
ENDBRANCH  41  44
ENDBRANCH   4  40
TORSDOF 23
