@<TRIPOS>MOLECULE
2F4U_AB6_B_41
 80 81 0 0 0
SMALL
GASTEIGER

@<TRIPOS>ATOM
      1 C          -0.5343    3.0251    1.9855 C.3     1  UNL1        0.1776
      2 H          -0.1868    3.9493    2.4407 H       1  UNL1        0.0927
      3 C          -1.9429    2.7607    2.5980 C.3     1  UNL1        0.0853
      4 H          -1.8338    2.7283    3.6884 H       1  UNL1        0.0535
      5 C          -2.8656    3.9445    2.2030 C.3     1  UNL1        0.1033
      6 H          -3.8865    3.7121    2.5289 H       1  UNL1        0.0637
      7 O          -2.5239    5.1710    2.8590 O.3     1  UNL1       -0.3874
      8 C          -2.8669    4.1820    0.6811 C.3     1  UNL1        0.1109
      9 H          -3.4090    5.1038    0.4362 H       1  UNL1        0.0646
     10 O          -3.5536    3.1074    0.0175 O.3     1  UNL1       -0.3865
     11 C          -1.4324    4.2631    0.1183 C.3     1  UNL1        0.1129
     12 H          -1.4857    4.1348   -0.9721 H       1  UNL1        0.0647
     13 O          -0.6193    3.1604    0.5630 O.3     1  UNL1       -0.3415
     14 C          -0.7653    5.6327    0.3701 C.3     1  UNL1        0.0730
     15 O           0.5080    5.6978   -0.2801 O.3     1  UNL1       -0.3924
     16 N          -2.5237    1.4589    2.1902 N.3     1  UNL1       -0.3211
     17 O           0.3827    1.9912    2.3769 O.3     1  UNL1       -0.3422
     18 C           1.6838    2.0845    1.7607 C.3     1  UNL1        0.1051
     19 H           1.5485    2.0845    0.6715 H       1  UNL1        0.0639
     20 C           2.4998    0.8256    2.1781 C.3     1  UNL1        0.0358
     21 H           2.7286    0.8964    3.2497 H       1  UNL1        0.0485
     22 C           3.8021    0.7846    1.3853 C.3     1  UNL1       -0.0142
     23 C           4.6679    1.9999    1.7091 C.3     1  UNL1        0.0533
     24 H           4.9767    1.9194    2.7606 H       1  UNL1        0.0525
     25 N           5.9337    1.9332    0.9766 N.am    1  UNL1       -0.3077
     26 C           6.0680    1.9687   -0.3966 C.2     1  UNL1        0.2420
     27 O           5.1264    2.0419   -1.1813 O.2     1  UNL1       -0.2730
     28 C           7.5257    2.0348   -0.8901 C.3     1  UNL1        0.1320
     29 H           7.9406    2.9744   -0.5169 H       1  UNL1        0.0690
     30 C           8.3277    0.8358   -0.3835 C.3     1  UNL1       -0.0059
     31 C           9.7893    0.8312   -0.8162 C.3     1  UNL1       -0.0041
     32 N          10.5193    1.9784   -0.2782 N.3     1  UNL1       -0.3299
     33 O           7.5827    2.0874   -2.3158 O.3     1  UNL1       -0.3825
     34 C           3.9237    3.3527    1.5611 C.3     1  UNL1        0.1053
     35 H           3.7861    3.6226    0.5105 H       1  UNL1        0.0641
     36 C           2.5099    3.3206    2.2040 C.3     1  UNL1        0.1106
     37 H           2.6025    3.3062    3.2973 H       1  UNL1        0.0646
     38 O           1.8375    4.5574    1.9266 O.3     1  UNL1       -0.3865
     39 O           4.6427    4.4013    2.2465 O.3     1  UNL1       -0.3708
     40 C           5.8521    4.8796    1.6565 C.3     1  UNL1        0.0607
     41 C           5.7428    5.3379    0.1966 C.3     1  UNL1        0.0194
     42 N           4.8412    6.4773    0.1070 N.3     1  UNL1       -0.3138
     43 C           4.5874    6.8818   -1.2653 C.3     1  UNL1       -0.0029
     44 C           3.7275    8.1414   -1.2279 C.3     1  UNL1       -0.0281
     45 C           3.4221    8.6335   -2.6356 C.3     1  UNL1       -0.0058
     46 N           2.6382    9.8611   -2.5699 N.3     1  UNL1       -0.3299
     47 N           1.7885   -0.4480    2.0049 N.3     1  UNL1       -0.3250
     48 H          -1.8001    5.0246    3.4945 H       1  UNL1        0.2100
     49 H          -4.4606    3.0737    0.3685 H       1  UNL1        0.2100
     50 H          -1.3852    6.4502   -0.0148 H       1  UNL1        0.0584
     51 H          -0.5859    5.8250    1.4289 H       1  UNL1        0.0584
     52 H           0.3435    5.7468   -1.2372 H       1  UNL1        0.2095
     53 H          -2.5506    1.4419    1.1626 H       1  UNL1        0.1187
     54 H          -3.4902    1.3922    2.5022 H       1  UNL1        0.1187
     55 H           3.5765    0.7434    0.3123 H       1  UNL1        0.0300
     56 H           4.3687   -0.1277    1.6143 H       1  UNL1        0.0300
     57 H           6.7735    1.9470    1.5373 H       1  UNL1        0.1491
     58 H           7.8580   -0.0813   -0.7553 H       1  UNL1        0.0307
     59 H           8.2879    0.7817    0.7100 H       1  UNL1        0.0307
     60 H           9.8764    0.8137   -1.9064 H       1  UNL1        0.0423
     61 H          10.2573   -0.0841   -0.4378 H       1  UNL1        0.0423
     62 H          10.2330    2.8175   -0.7845 H       1  UNL1        0.1182
     63 H          11.5078    1.8652   -0.5105 H       1  UNL1        0.1182
     64 H           6.6733    2.2941   -2.6157 H       1  UNL1        0.2104
     65 H           1.7633    4.6904    0.9584 H       1  UNL1        0.2100
     66 H           6.6383    4.1310    1.7748 H       1  UNL1        0.0572
     67 H           6.1776    5.7250    2.2734 H       1  UNL1        0.0572
     68 H           5.3703    4.5367   -0.4419 H       1  UNL1        0.0446
     69 H           6.7389    5.6058   -0.1704 H       1  UNL1        0.0446
     70 H           5.1984    7.2548    0.6601 H       1  UNL1        0.1220
     71 H           4.0551    6.0847   -1.7995 H       1  UNL1        0.0424
     72 H           5.5263    7.0813   -1.7943 H       1  UNL1        0.0424
     73 H           4.2504    8.9271   -0.6664 H       1  UNL1        0.0290
     74 H           2.7909    7.9328   -0.6930 H       1  UNL1        0.0290
     75 H           2.8653    7.8704   -3.1901 H       1  UNL1        0.0422
     76 H           4.3538    8.8299   -3.1769 H       1  UNL1        0.0422
     77 H           1.7813    9.6915   -2.0453 H       1  UNL1        0.1182
     78 H           2.3595   10.1392   -3.5082 H       1  UNL1        0.1182
     79 H           0.8517   -0.3246    2.4006 H       1  UNL1        0.1185
     80 H           1.6356   -0.6316    1.0157 H       1  UNL1        0.1185
@<TRIPOS>BOND
     1     1     3    1
     2     1    13    1
     3     1    17    1
     4     1     2    1
     5     3     5    1
     6     3    16    1
     7     3     4    1
     8     5     8    1
     9     5     7    1
    10     5     6    1
    11     7    48    1
    12     8     9    1
    13     8    10    1
    14     8    11    1
    15    10    49    1
    16    11    13    1
    17    11    14    1
    18    11    12    1
    19    14    15    1
    20    14    50    1
    21    14    51    1
    22    15    52    1
    23    16    53    1
    24    16    54    1
    25    18    20    1
    26    18    36    1
    27    18    19    1
    28    18    17    1
    29    20    21    1
    30    20    22    1
    31    20    47    1
    32    22    23    1
    33    22    55    1
    34    22    56    1
    35    23    25    1
    36    23    24    1
    37    25    26   am
    38    25    57    1
    39    26    27    2
    40    26    28    1
    41    28    29    1
    42    28    30    1
    43    28    33    1
    44    30    31    1
    45    30    58    1
    46    30    59    1
    47    31    32    1
    48    31    60    1
    49    31    61    1
    50    32    62    1
    51    32    63    1
    52    33    64    1
    53    34    23    1
    54    34    35    1
    55    34    39    1
    56    36    34    1
    57    36    38    1
    58    36    37    1
    59    38    65    1
    60    39    40    1
    61    40    41    1
    62    40    66    1
    63    40    67    1
    64    41    42    1
    65    41    68    1
    66    41    69    1
    67    42    43    1
    68    42    70    1
    69    43    44    1
    70    43    71    1
    71    43    72    1
    72    44    45    1
    73    44    73    1
    74    44    74    1
    75    45    46    1
    76    45    75    1
    77    45    76    1
    78    46    77    1
    79    46    78    1
    80    47    79    1
    81    47    80    1
