REMARK  2 active torsions:
REMARK  status: ('A' for Active; 'I' for Inactive)
REMARK    1  A    between atoms: C_2  and  N_1 
REMARK    2  A    between atoms: N_12  and  C_4 
ROOT
ATOM      1  C   UNL d   1       0.100  -1.232   0.121  0.00  0.00     0.119 A 
ATOM      2  N   UNL d   1       1.385  -1.081   0.506  0.00  0.00    -0.206 NA
ATOM      3  C   UNL d   1       1.845   0.176   0.658  0.00  0.00     0.202 A 
ATOM      4  N   UNL d   1       1.099   1.282   0.430  0.00  0.00    -0.198 NA
ATOM      5  C   UNL d   1      -0.174   1.147   0.049  0.00  0.00     0.168 A 
ATOM      6  C   UNL d   1      -0.726  -0.121  -0.123  0.00  0.00     0.069 A 
ATOM      7  C   UNL d   1      -2.068  -0.170  -0.524  0.00  0.00     0.136 A 
ATOM      8  N   UNL d   1      -2.832   0.916  -0.734  0.00  0.00    -0.253 NA
ATOM      9  C   UNL d   1      -2.196   2.077  -0.536  0.00  0.00     0.235 A 
ATOM     10  N   UNL d   1      -0.911   2.244  -0.164  0.00  0.00    -0.221 NA
ENDROOT
BRANCH   1  11
ATOM     11  N   UNL d   1      -0.407  -2.542  -0.036  0.00  0.00    -0.286 NA
ATOM     12  H   UNL d   1      -1.245  -2.677   0.526  0.00  0.00     0.125 HD
ATOM     13  H   UNL d   1       0.295  -3.221   0.249  0.00  0.00     0.125 HD
ENDBRANCH   1  11
BRANCH   3  14
ATOM     14  N   UNL d   1       3.177   0.350   1.082  0.00  0.00    -0.271 NA
ATOM     15  H   UNL d   1       3.315  -0.082   1.993  0.00  0.00     0.127 HD
ATOM     16  H   UNL d   1       3.403   1.341   1.139  0.00  0.00     0.127 HD
ENDBRANCH   3  14
TORSDOF 2
