@<TRIPOS>MOLECULE
4LX5_29G_A_501
 18 19 0 0 0
SMALL
GASTEIGER

@<TRIPOS>ATOM
      1 N          -0.4072   -2.5420   -0.0362 N.pl3   1  UNL1       -0.3424
      2 C           0.1002   -1.2319    0.1210 C.ar    1  UNL1        0.1320
      3 N           1.3845   -1.0811    0.5061 N.ar    1  UNL1       -0.1994
      4 C           1.8450    0.1762    0.6583 C.ar    1  UNL1        0.2162
      5 N           1.0989    1.2816    0.4299 N.ar    1  UNL1       -0.1947
      6 C          -0.1745    1.1471    0.0490 C.ar    1  UNL1        0.1696
      7 C          -0.7264   -0.1209   -0.1231 C.ar    1  UNL1        0.0768
      8 C          -2.0685   -0.1696   -0.5241 C.ar    1  UNL1        0.0433
      9 N          -2.8319    0.9160   -0.7339 N.ar    1  UNL1       -0.2429
     10 C          -2.1962    2.0773   -0.5365 C.ar    1  UNL1        0.1183
     11 N          -0.9108    2.2438   -0.1642 N.ar    1  UNL1       -0.2158
     12 N           3.1773    0.3501    1.0816 N.pl3   1  UNL1       -0.3274
     13 H          -1.2447   -2.6771    0.5264 H       1  UNL1        0.1437
     14 H           0.2953   -3.2214    0.2488 H       1  UNL1        0.1437
     15 H          -2.5835   -1.1124   -0.6823 H       1  UNL1        0.0838
     16 H          -2.7724    2.9804   -0.6951 H       1  UNL1        0.1047
     17 H           3.3151   -0.0819    1.9927 H       1  UNL1        0.1452
     18 H           3.4034    1.3406    1.1394 H       1  UNL1        0.1452
@<TRIPOS>BOND
     1     2     1    1
     2     3     2   ar
     3     4     3   ar
     4     5     4   ar
     5     6     5   ar
     6     7     6   ar
     7     7     2   ar
     8     8     7   ar
     9     9     8   ar
    10    10     9   ar
    11    11    10   ar
    12    11     6   ar
    13    12     4    1
    14     1    13    1
    15     1    14    1
    16     8    15    1
    17    10    16    1
    18    12    17    1
    19    12    18    1
