REMARK  22 active torsions:
REMARK  status: ('A' for Active; 'I' for Inactive)
REMARK    1  A    between atoms: C_1  and  O_2 
REMARK    2  A    between atoms: O_2  and  C_3 
REMARK    3  A    between atoms: C_4  and  O_12 
REMARK    4  A    between atoms: C_5  and  O_11 
REMARK    5  A    between atoms: C_6  and  N_7 
REMARK    6  A    between atoms: C_9  and  N_10 
REMARK    7  A    between atoms: O_12  and  C_13 
REMARK    8  A    between atoms: C_14  and  O_15 
REMARK    9  A    between atoms: C_16  and  O_17 
REMARK   10  A    between atoms: O_17  and  C_18 
REMARK   11  A    between atoms: C_20  and  C_27 
REMARK   12  A    between atoms: C_21  and  O_26 
REMARK   13  A    between atoms: C_22  and  O_25 
REMARK   14  A    between atoms: C_23  and  N_24 
REMARK   15  A    between atoms: C_27  and  N_28 
REMARK   16  A    between atoms: C_29  and  C_31 
REMARK   17  A    between atoms: C_31  and  O_32 
REMARK   18  A    between atoms: C_33  and  N_34 
REMARK   19  A    between atoms: C_35  and  O_36 
REMARK   20  A    between atoms: C_37  and  O_38 
REMARK   21  A    between atoms: C_39  and  C_41 
REMARK   22  A    between atoms: C_41  and  O_42 
ROOT
ATOM      1  C   UNL d   1       1.809   2.088   1.653  0.00  0.00     0.189 C 
ATOM      2  C   UNL d   1       2.701   0.827   1.808  0.00  0.00     0.186 C 
ATOM      3  C   UNL d   1       3.997   1.013   0.975  0.00  0.00     0.182 C 
ATOM      4  C   UNL d   1       4.827   2.221   1.479  0.00  0.00     0.251 C 
ATOM      5  C   UNL d   1       3.971   3.497   1.439  0.00  0.00     0.076 C 
ATOM      6  C   UNL d   1       2.573   3.382   2.094  0.00  0.00     0.251 C 
ENDROOT
BRANCH   2   7
ATOM      7  O   UNL d   1       2.960   0.550   3.200  0.00  0.00    -0.348 OA
BRANCH   7   8
ATOM      8  C   UNL d   1       3.649  -0.688   3.360  0.00  0.00     0.292 C 
ATOM      9  C   UNL d   1       4.025  -0.973   4.807  0.00  0.00     0.205 C 
ATOM     10  C   UNL d   1       4.347  -2.459   4.696  0.00  0.00     0.189 C 
ATOM     11  C   UNL d   1       3.317  -2.953   3.665  0.00  0.00     0.180 C 
ATOM     12  O   UNL d   1       2.861  -1.793   2.930  0.00  0.00    -0.348 OA
BRANCH   9  13
ATOM     13  O   UNL d   1       5.152  -0.209   5.246  0.00  0.00    -0.388 OA
ATOM     14  H   UNL d   1       5.925  -0.614   4.798  0.00  0.00     0.210 HD
ENDBRANCH   9  13
BRANCH  10  15
ATOM     15  O   UNL d   1       5.726  -2.545   4.285  0.00  0.00    -0.348 OA
BRANCH  15  16
ATOM     16  C   UNL d   1       6.247  -3.815   3.902  0.00  0.00     0.296 C 
ATOM     17  O   UNL d   1       7.554  -3.625   3.328  0.00  0.00    -0.349 OA
ATOM     18  C   UNL d   1       8.629  -3.322   4.236  0.00  0.00     0.183 C 
ATOM     19  C   UNL d   1       8.721  -4.400   5.331  0.00  0.00     0.179 C 
ATOM     20  C   UNL d   1       7.374  -4.575   6.041  0.00  0.00     0.187 C 
ATOM     21  C   UNL d   1       6.290  -4.911   5.008  0.00  0.00     0.303 C 
BRANCH  18  22
ATOM     22  C   UNL d   1       8.581  -1.882   4.810  0.00  0.00     0.301 C 
BRANCH  22  23
ATOM     23  N   UNL d   1       8.587  -0.830   3.790  0.00  0.00     0.080 N 
ATOM     24  H   UNL d   1       8.480   0.081   4.238  0.00  0.00     0.312 HD
ATOM     25  H   UNL d   1       9.505  -0.805   3.341  0.00  0.00     0.312 HD
ENDBRANCH  22  23
ENDBRANCH  18  22
BRANCH  19  26
ATOM     26  O   UNL d   1       9.749  -4.160   6.298  0.00  0.00    -0.390 OA
ATOM     27  H   UNL d   1       9.502  -3.394   6.845  0.00  0.00     0.210 HD
ENDBRANCH  19  26
BRANCH  20  28
ATOM     28  O   UNL d   1       7.464  -5.641   7.002  0.00  0.00    -0.391 OA
ATOM     29  H   UNL d   1       8.370  -5.611   7.368  0.00  0.00     0.210 HD
ENDBRANCH  20  28
BRANCH  21  30
ATOM     30  N   UNL d   1       5.015  -5.242   5.686  0.00  0.00     0.090 N 
ATOM     31  H   UNL d   1       4.869  -4.583   6.455  0.00  0.00     0.313 HD
ATOM     32  H   UNL d   1       5.189  -6.107   6.210  0.00  0.00     0.313 HD
ENDBRANCH  21  30
ENDBRANCH  15  16
ENDBRANCH  10  15
BRANCH  11  33
ATOM     33  C   UNL d   1       2.090  -3.605   4.299  0.00  0.00     0.198 C 
BRANCH  33  34
ATOM     34  O   UNL d   1       1.502  -2.735   5.262  0.00  0.00    -0.398 OA
ATOM     35  H   UNL d   1       1.143  -1.982   4.752  0.00  0.00     0.209 HD
ENDBRANCH  33  34
ENDBRANCH  11  33
ENDBRANCH   7   8
ENDBRANCH   2   7
BRANCH   1  36
ATOM     36  O   UNL d   1       1.394   2.263   0.277  0.00  0.00    -0.349 OA
BRANCH  36  37
ATOM     37  C   UNL d   1       0.483   1.256  -0.212  0.00  0.00     0.296 C 
ATOM     38  C   UNL d   1       0.144   1.555  -1.711  0.00  0.00     0.303 C 
ATOM     39  C   UNL d   1      -0.877   0.509  -2.220  0.00  0.00     0.187 C 
ATOM     40  C   UNL d   1      -2.090   0.391  -1.278  0.00  0.00     0.180 C 
ATOM     41  C   UNL d   1      -1.654   0.194   0.185  0.00  0.00     0.179 C 
ATOM     42  O   UNL d   1      -0.686   1.176   0.597  0.00  0.00    -0.349 OA
BRANCH  38  43
ATOM     43  N   UNL d   1      -0.342   2.937  -1.929  0.00  0.00     0.090 N 
ATOM     44  H   UNL d   1      -1.177   3.071  -1.346  0.00  0.00     0.313 HD
ATOM     45  H   UNL d   1      -0.642   3.063  -2.893  0.00  0.00     0.313 HD
ENDBRANCH  38  43
BRANCH  39  46
ATOM     46  O   UNL d   1      -0.306  -0.788  -2.421  0.00  0.00    -0.391 OA
ATOM     47  H   UNL d   1       0.619  -0.807  -2.120  0.00  0.00     0.210 HD
ENDBRANCH  39  46
BRANCH  40  48
ATOM     48  O   UNL d   1      -2.882   1.585  -1.354  0.00  0.00    -0.390 OA
ATOM     49  H   UNL d   1      -3.219   1.664  -2.263  0.00  0.00     0.210 HD
ENDBRANCH  40  48
BRANCH  41  50
ATOM     50  C   UNL d   1      -1.200  -1.249   0.488  0.00  0.00     0.198 C 
BRANCH  50  51
ATOM     51  O   UNL d   1      -0.797  -1.408   1.847  0.00  0.00    -0.398 OA
ATOM     52  H   UNL d   1      -1.209  -0.697   2.368  0.00  0.00     0.209 HD
ENDBRANCH  50  51
ENDBRANCH  41  50
ENDBRANCH  36  37
ENDBRANCH   1  36
BRANCH   3  53
ATOM     53  O   UNL d   1       3.702   1.146  -0.424  0.00  0.00    -0.391 OA
ATOM     54  H   UNL d   1       3.089   1.903  -0.525  0.00  0.00     0.210 HD
ENDBRANCH   3  53
BRANCH   6  55
ATOM     55  N   UNL d   1       2.649   3.511   3.558  0.00  0.00     0.085 N 
ATOM     56  H   UNL d   1       3.478   4.047   3.820  0.00  0.00     0.313 HD
ATOM     57  H   UNL d   1       2.760   2.588   3.983  0.00  0.00     0.313 HD
ENDBRANCH   6  55
BRANCH   4  58
ATOM     58  N   UNL d   1       5.426   2.050   2.812  0.00  0.00     0.085 N 
ATOM     59  H   UNL d   1       6.012   1.215   2.829  0.00  0.00     0.313 HD
ATOM     60  H   UNL d   1       4.695   1.874   3.507  0.00  0.00     0.313 HD
ENDBRANCH   4  58
TORSDOF 22
