@<TRIPOS>MOLECULE
ligands/ligand.pdb
 87 90 0 0 0
SMALL
GASTEIGER

@<TRIPOS>ATOM
      1 C           0.4827    1.2555   -0.2123 C.3     1  UNL1        0.1776
      2 H           1.0008    0.2938   -0.1947 H       1  UNL1        0.0927
      3 O           1.3937    2.2632    0.2765 O.3     1  UNL1       -0.3422
      4 C           1.8087    2.0877    1.6525 C.3     1  UNL1        0.1055
      5 H           0.9126    2.0050    2.2807 H       1  UNL1        0.0639
      6 C           2.7009    0.8270    1.8083 C.3     1  UNL1        0.1166
      7 H           2.1467   -0.0257    1.4074 H       1  UNL1        0.0650
      8 C           3.9972    1.0129    0.9753 C.3     1  UNL1        0.0990
      9 H           4.6215    0.1187    1.0239 H       1  UNL1        0.0636
     10 C           4.8265    2.2213    1.4791 C.3     1  UNL1        0.0351
     11 H           5.6628    2.3660    0.7847 H       1  UNL1        0.0485
     12 N           5.4255    2.0500    2.8119 N.3     1  UNL1       -0.3250
     13 C           3.9711    3.4968    1.4394 C.3     1  UNL1       -0.0175
     14 C           2.5733    3.3818    2.0936 C.3     1  UNL1        0.0355
     15 H           2.0035    4.2515    1.7413 H       1  UNL1        0.0485
     16 N           2.6494    3.5108    3.5583 N.3     1  UNL1       -0.3250
     17 O           3.7023    1.1462   -0.4245 O.3     1  UNL1       -0.3876
     18 O           2.9604    0.5504    3.2003 O.3     1  UNL1       -0.3402
     19 C           3.6493   -0.6883    3.3600 C.3     1  UNL1        0.1884
     20 H           4.5767   -0.6768    2.7850 H       1  UNL1        0.0938
     21 C           4.0252   -0.9728    4.8068 C.3     1  UNL1        0.1345
     22 H           3.1862   -0.7725    5.4797 H       1  UNL1        0.0671
     23 O           5.1523   -0.2090    5.2463 O.3     1  UNL1       -0.3841
     24 C           4.3467   -2.4594    4.6958 C.3     1  UNL1        0.1205
     25 H           4.2467   -2.9016    5.6855 H       1  UNL1        0.0651
     26 O           5.7261   -2.5446    4.2848 O.3     1  UNL1       -0.3410
     27 C           6.2468   -3.8146    3.9017 C.3     1  UNL1        0.1776
     28 H           5.6525   -4.1983    3.0687 H       1  UNL1        0.0927
     29 O           7.5545   -3.6246    3.3284 O.3     1  UNL1       -0.3425
     30 C           8.6288   -3.3220    4.2356 C.3     1  UNL1        0.1022
     31 H           9.5505   -3.3879    3.6429 H       1  UNL1        0.0636
     32 C           8.7208   -4.4004    5.3306 C.3     1  UNL1        0.1100
     33 H           8.9798   -5.3577    4.8577 H       1  UNL1        0.0646
     34 C           7.3743   -4.5755    6.0407 C.3     1  UNL1        0.1033
     35 H           7.1147   -3.6739    6.6091 H       1  UNL1        0.0637
     36 C           6.2900   -4.9114    5.0075 C.3     1  UNL1        0.0853
     37 H           6.5959   -5.8422    4.5085 H       1  UNL1        0.0535
     38 N           5.0147   -5.2420    5.6856 N.3     1  UNL1       -0.3211
     39 O           7.4639   -5.6413    7.0018 O.3     1  UNL1       -0.3874
     40 O           9.7487   -4.1598    6.2981 O.3     1  UNL1       -0.3866
     41 C           8.5814   -1.8819    4.8103 C.3     1  UNL1        0.0222
     42 N           8.5867   -0.8298    3.7903 N.3     1  UNL1       -0.3276
     43 C           3.3166   -2.9530    3.6647 C.3     1  UNL1        0.1135
     44 H           3.7310   -3.6351    2.9204 H       1  UNL1        0.0647
     45 O           2.8612   -1.7933    2.9299 O.3     1  UNL1       -0.3405
     46 C           2.0898   -3.6051    4.2987 C.3     1  UNL1        0.0730
     47 O           1.5015   -2.7352    5.2621 O.3     1  UNL1       -0.3924
     48 C           0.1439    1.5553   -1.7106 C.3     1  UNL1        0.0853
     49 H           1.0774    1.4658   -2.2842 H       1  UNL1        0.0535
     50 N          -0.3420    2.9371   -1.9295 N.3     1  UNL1       -0.3211
     51 C          -0.8774    0.5090   -2.2201 C.3     1  UNL1        0.1033
     52 H          -1.2294    0.8249   -3.2104 H       1  UNL1        0.0637
     53 O          -0.3064   -0.7879   -2.4212 O.3     1  UNL1       -0.3874
     54 C          -2.0897    0.3914   -1.2784 C.3     1  UNL1        0.1109
     55 H          -2.7329   -0.4419   -1.5823 H       1  UNL1        0.0646
     56 O          -2.8822    1.5845   -1.3538 O.3     1  UNL1       -0.3865
     57 C          -1.6538    0.1939    0.1851 C.3     1  UNL1        0.1129
     58 H          -2.5196    0.3951    0.8282 H       1  UNL1        0.0647
     59 O          -0.6857    1.1759    0.5971 O.3     1  UNL1       -0.3415
     60 C          -1.2001   -1.2493    0.4883 C.3     1  UNL1        0.0730
     61 O          -0.7974   -1.4077    1.8473 O.3     1  UNL1       -0.3924
     62 H           6.0121    1.2150    2.8286 H       1  UNL1        0.1185
     63 H           4.6946    1.8742    3.5069 H       1  UNL1        0.1185
     64 H           3.8334    3.7766    0.3867 H       1  UNL1        0.0297
     65 H           4.5328    4.3339    1.8774 H       1  UNL1        0.0297
     66 H           3.4777    4.0473    3.8196 H       1  UNL1        0.1185
     67 H           2.7598    2.5885    3.9834 H       1  UNL1        0.1185
     68 H           3.0889    1.9035   -0.5248 H       1  UNL1        0.2100
     69 H           5.9246   -0.6141    4.7980 H       1  UNL1        0.2101
     70 H           4.8692   -4.5826    6.4554 H       1  UNL1        0.1187
     71 H           5.1895   -6.1071    6.2099 H       1  UNL1        0.1187
     72 H           8.3696   -5.6114    7.3683 H       1  UNL1        0.2100
     73 H           9.5025   -3.3944    6.8452 H       1  UNL1        0.2100
     74 H           7.6939   -1.7450    5.4300 H       1  UNL1        0.0448
     75 H           9.4445   -1.7149    5.4632 H       1  UNL1        0.0448
     76 H           8.4803    0.0810    4.2376 H       1  UNL1        0.1183
     77 H           9.5047   -0.8046    3.3413 H       1  UNL1        0.1183
     78 H           1.3302   -3.8226    3.5405 H       1  UNL1        0.0584
     79 H           2.3615   -4.5396    4.7962 H       1  UNL1        0.0584
     80 H           1.1433   -1.9825    4.7521 H       1  UNL1        0.2095
     81 H          -1.1769    3.0708   -1.3464 H       1  UNL1        0.1187
     82 H          -0.6420    3.0633   -2.8935 H       1  UNL1        0.1187
     83 H           0.6192   -0.8075   -2.1201 H       1  UNL1        0.2100
     84 H          -3.2185    1.6641   -2.2634 H       1  UNL1        0.2100
     85 H          -2.0226   -1.9487    0.3010 H       1  UNL1        0.0584
     86 H          -0.3506   -1.5650   -0.1178 H       1  UNL1        0.0584
     87 H          -1.2089   -0.6966    2.3684 H       1  UNL1        0.2095
@<TRIPOS>BOND
     1     1    48    1
     2     1    59    1
     3     1     3    1
     4     1     2    1
     5     3     4    1
     6     4     5    1
     7     4     6    1
     8     6     8    1
     9     6    18    1
    10     6     7    1
    11     8    10    1
    12     8    17    1
    13     8     9    1
    14    10    11    1
    15    10    12    1
    16    10    13    1
    17    12    62    1
    18    12    63    1
    19    13    14    1
    20    13    64    1
    21    13    65    1
    22    14    15    1
    23    14     4    1
    24    14    16    1
    25    16    66    1
    26    16    67    1
    27    17    68    1
    28    18    19    1
    29    19    20    1
    30    19    21    1
    31    19    45    1
    32    21    24    1
    33    21    23    1
    34    21    22    1
    35    23    69    1
    36    24    25    1
    37    24    26    1
    38    24    43    1
    39    26    27    1
    40    27    28    1
    41    27    29    1
    42    27    36    1
    43    29    30    1
    44    30    32    1
    45    30    41    1
    46    30    31    1
    47    32    40    1
    48    32    33    1
    49    34    32    1
    50    34    35    1
    51    34    39    1
    52    36    34    1
    53    36    38    1
    54    36    37    1
    55    38    70    1
    56    38    71    1
    57    39    72    1
    58    40    73    1
    59    41    42    1
    60    41    74    1
    61    41    75    1
    62    42    76    1
    63    42    77    1
    64    43    45    1
    65    43    46    1
    66    43    44    1
    67    46    47    1
    68    46    78    1
    69    46    79    1
    70    47    80    1
    71    48    51    1
    72    48    50    1
    73    48    49    1
    74    50    81    1
    75    50    82    1
    76    51    54    1
    77    51    53    1
    78    51    52    1
    79    53    83    1
    80    54    55    1
    81    54    56    1
    82    54    57    1
    83    56    84    1
    84    57    59    1
    85    57    60    1
    86    57    58    1
    87    60    61    1
    88    60    85    1
    89    60    86    1
    90    61    87    1
