@<TRIPOS>MOLECULE
3E5E_SAH_A_220
 46 48 0 0 0
SMALL
GASTEIGER

@<TRIPOS>ATOM
      1 N1          6.4415   -3.0800   -2.0271 N.3     1  <1>        -0.3184
      2 C1          7.0793   -3.3538   -0.7087 C.3     1  <1>         0.1040
      3 H1          7.8995   -2.6349   -0.5950 H       1  <1>         0.0574
      4 C2          6.1279   -3.1918    0.4833 C.3     1  <1>        -0.0183
      5 C3          4.9388   -4.1523    0.4786 C.3     1  <1>        -0.0043
      6 S1          3.9132   -3.8669    1.9591 S.3     1  <1>        -0.1580
      7 C4          2.6401   -5.1720    1.7379 C.3     1  <1>         0.0226
      8 C5          3.2073   -6.5900    1.6566 C.3     1  <1>         0.0986
      9 H2          3.8585   -6.6823    0.7798 H       1  <1>         0.0632
     10 O1          3.9644   -6.9286    2.8304 O.3     1  <1>        -0.3471
     11 C6          4.1119   -8.3551    2.7727 C.3     1  <1>         0.1666
     12 H3          4.9732   -8.5873    2.1326 H       1  <1>         0.0866
     13 C7          2.7971   -8.8963    2.1879 C.3     1  <1>         0.1285
     14 H4          2.1407   -9.3258    2.9539 H       1  <1>         0.0665
     15 C8          2.1256   -7.6636    1.5780 C.3     1  <1>         0.1121
     16 H5          1.2572   -7.3833    2.1851 H       1  <1>         0.0647
     17 O2          1.6920   -7.8797    0.2403 O.3     1  <1>        -0.3865
     18 O3          3.0147   -9.9021    1.1904 O.3     1  <1>        -0.3847
     19 N2          4.4075   -8.8897    4.0837 N.ar    1  <1>        -0.2855
     20 C9          4.5345   -8.2145    5.2650 C.ar    1  <1>         0.1004
     21 N3          4.7498   -9.0334    6.2754 N.ar    1  <1>        -0.2306
     22 C10         4.7895  -10.2918    5.7108 C.ar    1  <1>         0.1473
     23 C11         4.9708  -11.5734    6.2509 C.ar    1  <1>         0.1472
     24 N4          5.1354  -11.8079    7.6086 N.pl3   1  <1>        -0.3413
     25 N5          4.9956  -12.6342    5.4073 N.ar    1  <1>        -0.2188
     26 C12         4.8040  -12.4091    4.0885 C.ar    1  <1>         0.1205
     27 N6          4.5757  -11.2353    3.4575 N.ar    1  <1>        -0.2159
     28 C13         4.5984  -10.2207    4.3409 C.ar    1  <1>         0.1674
     29 C14         7.7464   -4.7409   -0.7702 C.2     1  <1>         0.3217
     30 O4          7.9802   -5.4678    0.1807 O.2     1  <1>        -0.2493
     31 O5          8.0617   -5.0650   -2.0533 O.3     1  <1>        -0.4795
     32 H6          6.0126   -2.1504   -1.9830 H       1  <1>         0.1190
     33 H7          5.6506   -3.7176   -2.1596 H       1  <1>         0.1190
     34 H8          5.7683   -2.1545    0.5061 H       1  <1>         0.0293
     35 H9          6.7073   -3.3435    1.4044 H       1  <1>         0.0293
     36 H10         5.3042   -5.1802    0.4794 H       1  <1>         0.0377
     37 H11         4.3116   -3.9960   -0.4035 H       1  <1>         0.0377
     38 H12         2.0475   -4.9347    0.8485 H       1  <1>         0.0402
     39 H13         1.9806   -5.0876    2.6089 H       1  <1>         0.0402
     40 H14         1.9199   -8.8138    0.0374 H       1  <1>         0.2100
     41 H15         3.4927  -10.6324    1.6415 H       1  <1>         0.2101
     42 H16         4.4572   -7.1357    5.3359 H       1  <1>         0.1030
     43 H17         5.4348  -10.9888    8.1262 H       1  <1>         0.1438
     44 H18         5.6041  -12.6836    7.7970 H       1  <1>         0.1438
     45 H19         4.8339  -13.2924    3.4563 H       1  <1>         0.1048
     46 H20         7.7414   -4.3186   -2.6182 H       1  <1>         0.2951
@<TRIPOS>BOND
     1     1     2    1
     2     1    32    1
     3     1    33    1
     4     2     3    1
     5     2     4    1
     6     2    29    1
     7     4     5    1
     8     4    34    1
     9     4    35    1
    10     5     6    1
    11     5    36    1
    12     5    37    1
    13     6     7    1
    14     7     8    1
    15     7    38    1
    16     7    39    1
    17     8     9    1
    18     8    10    1
    19     8    15    1
    20    10    11    1
    21    11    13    1
    22    11    19    1
    23    11    12    1
    24    13    14    1
    25    13    15    1
    26    13    18    1
    27    15    16    1
    28    15    17    1
    29    17    40    1
    30    18    41    1
    31    19    20   ar
    32    19    28   ar
    33    20    21   ar
    34    20    42    1
    35    21    22   ar
    36    22    23   ar
    37    22    28   ar
    38    23    24    1
    39    23    25   ar
    40    24    43    1
    41    24    44    1
    42    25    26   ar
    43    26    27   ar
    44    26    45    1
    45    27    28   ar
    46    29    30    2
    47    29    31    1
    48    31    46    1
