3E5E_SAH_A_220
 OpenBabel03221817303D

 46 48  0  0  1  0  0  0  0  0999 V2000
    6.4415   -3.0800   -2.0271 N   0  0  0  0  0  0  0  0  0  0  0  0
    7.0793   -3.3538   -0.7087 C   0  0  1  0  0  0  0  0  0  0  0  0
    7.8995   -2.6349   -0.5950 H   0  0  0  0  0  0  0  0  0  0  0  0
    6.1279   -3.1918    0.4833 C   0  0  0  0  0  0  0  0  0  0  0  0
    4.9388   -4.1523    0.4786 C   0  0  0  0  0  0  0  0  0  0  0  0
    3.9132   -3.8669    1.9591 S   0  0  0  0  0  0  0  0  0  0  0  0
    2.6401   -5.1720    1.7379 C   0  0  0  0  0  0  0  0  0  0  0  0
    3.2073   -6.5900    1.6566 C   0  0  1  0  0  0  0  0  0  0  0  0
    3.8585   -6.6823    0.7798 H   0  0  0  0  0  0  0  0  0  0  0  0
    3.9644   -6.9286    2.8304 O   0  0  0  0  0  0  0  0  0  0  0  0
    4.1119   -8.3551    2.7727 C   0  0  2  0  0  0  0  0  0  0  0  0
    4.9732   -8.5873    2.1326 H   0  0  0  0  0  0  0  0  0  0  0  0
    2.7971   -8.8963    2.1879 C   0  0  1  0  0  0  0  0  0  0  0  0
    2.1407   -9.3258    2.9539 H   0  0  0  0  0  0  0  0  0  0  0  0
    2.1256   -7.6636    1.5780 C   0  0  2  0  0  0  0  0  0  0  0  0
    1.2572   -7.3833    2.1851 H   0  0  0  0  0  0  0  0  0  0  0  0
    1.6920   -7.8797    0.2403 O   0  0  0  0  0  0  0  0  0  0  0  0
    3.0147   -9.9021    1.1904 O   0  0  0  0  0  0  0  0  0  0  0  0
    4.4075   -8.8897    4.0837 N   0  0  0  0  0  0  0  0  0  0  0  0
    4.5345   -8.2145    5.2650 C   0  0  0  0  0  0  0  0  0  0  0  0
    4.7498   -9.0334    6.2754 N   0  0  0  0  0  0  0  0  0  0  0  0
    4.7895  -10.2918    5.7108 C   0  0  0  0  0  0  0  0  0  0  0  0
    4.9708  -11.5734    6.2509 C   0  0  0  0  0  0  0  0  0  0  0  0
    5.1354  -11.8079    7.6086 N   0  0  0  0  0  0  0  0  0  0  0  0
    4.9956  -12.6342    5.4073 N   0  0  0  0  0  0  0  0  0  0  0  0
    4.8040  -12.4091    4.0885 C   0  0  0  0  0  0  0  0  0  0  0  0
    4.5757  -11.2353    3.4575 N   0  0  0  0  0  0  0  0  0  0  0  0
    4.5984  -10.2207    4.3409 C   0  0  0  0  0  0  0  0  0  0  0  0
    7.7464   -4.7409   -0.7702 C   0  0  0  0  0  0  0  0  0  0  0  0
    7.9802   -5.4678    0.1807 O   0  0  0  0  0  0  0  0  0  0  0  0
    8.0617   -5.0650   -2.0533 O   0  0  0  0  0  0  0  0  0  0  0  0
    6.0126   -2.1504   -1.9830 H   0  0  0  0  0  0  0  0  0  0  0  0
    5.6506   -3.7176   -2.1596 H   0  0  0  0  0  0  0  0  0  0  0  0
    5.7683   -2.1545    0.5061 H   0  0  0  0  0  0  0  0  0  0  0  0
    6.7073   -3.3435    1.4044 H   0  0  0  0  0  0  0  0  0  0  0  0
    5.3042   -5.1802    0.4794 H   0  0  0  0  0  0  0  0  0  0  0  0
    4.3116   -3.9960   -0.4035 H   0  0  0  0  0  0  0  0  0  0  0  0
    2.0475   -4.9347    0.8485 H   0  0  0  0  0  0  0  0  0  0  0  0
    1.9806   -5.0876    2.6089 H   0  0  0  0  0  0  0  0  0  0  0  0
    1.9199   -8.8138    0.0374 H   0  0  0  0  0  0  0  0  0  0  0  0
    3.4927  -10.6324    1.6415 H   0  0  0  0  0  0  0  0  0  0  0  0
    4.4572   -7.1357    5.3359 H   0  0  0  0  0  0  0  0  0  0  0  0
    5.4348  -10.9888    8.1262 H   0  0  0  0  0  0  0  0  0  0  0  0
    5.6041  -12.6836    7.7970 H   0  0  0  0  0  0  0  0  0  0  0  0
    4.8339  -13.2924    3.4563 H   0  0  0  0  0  0  0  0  0  0  0  0
    7.7414   -4.3186   -2.6182 H   0  0  0  0  0  0  0  0  0  0  0  0
  1  2  1  0  0  0  0
  1 32  1  0  0  0  0
  1 33  1  0  0  0  0
  2  3  1  1  0  0  0
  2  4  1  0  0  0  0
  2 29  1  0  0  0  0
  4  5  1  0  0  0  0
  4 34  1  0  0  0  0
  4 35  1  0  0  0  0
  5  6  1  0  0  0  0
  5 36  1  0  0  0  0
  5 37  1  0  0  0  0
  6  7  1  0  0  0  0
  7  8  1  0  0  0  0
  7 38  1  0  0  0  0
  7 39  1  0  0  0  0
  8  9  1  0  0  0  0
  8 10  1  0  0  0  0
  8 15  1  6  0  0  0
 10 11  1  0  0  0  0
 11 13  1  6  0  0  0
 11 19  1  0  0  0  0
 11 12  1  0  0  0  0
 13 14  1  0  0  0  0
 13 15  1  6  0  0  0
 13 18  1  0  0  0  0
 15 16  1  1  0  0  0
 15 17  1  0  0  0  0
 17 40  1  0  0  0  0
 18 41  1  0  0  0  0
 19 20  1  0  0  0  0
 19 28  1  0  0  0  0
 20 21  2  0  0  0  0
 20 42  1  0  0  0  0
 21 22  1  0  0  0  0
 22 23  2  0  0  0  0
 22 28  1  0  0  0  0
 23 24  1  0  0  0  0
 23 25  1  0  0  0  0
 24 43  1  0  0  0  0
 24 44  1  0  0  0  0
 25 26  2  0  0  0  0
 26 27  1  0  0  0  0
 26 45  1  0  0  0  0
 27 28  2  0  0  0  0
 29 30  2  0  0  0  0
 29 31  1  0  0  0  0
 31 46  1  0  0  0  0
M  END
$$$$
