4LVV_FFO_A_101
  1228              3D

 42 44  0  0  0  0  0  0  0  0999 V2000
    1.0825    0.0135   -3.0451 N   0  0  0  0  0  0  0  0  0  0  0  0
    2.2149    0.6486   -3.1602 C   0  0  0  0  0  0  0  0  0  0  0  0
    2.5698    1.3284   -4.3043 N   0  0  0  0  0  0  0  0  0  0  0  0
    3.0958    0.7146   -2.0905 N   0  0  0  0  0  0  0  0  0  0  0  0
    3.8995    1.3288   -2.1665 H   0  0  0  0  0  0  0  0  0  0  0  0
    3.0458   -0.1786   -1.0278 C   0  0  0  0  0  0  0  0  0  0  0  0
    3.9149   -0.2775   -0.1700 O   0  0  0  0  0  0  0  0  0  0  0  0
    1.8494   -1.0642   -1.0920 C   0  0  0  0  0  0  0  0  0  0  0  0
    1.6252   -2.0459   -0.1347 N   0  0  0  0  0  0  0  0  0  0  0  0
    0.3303   -2.0866    0.5696 C   0  0  0  0  0  0  0  0  0  0  0  0
    0.1212   -3.1557    0.7207 H   0  0  0  0  0  0  0  0  0  0  0  0
   -0.8540   -1.5507   -0.2585 C   0  0  0  0  0  0  0  0  0  0  0  0
   -0.4467   -0.5668   -1.2502 N   0  0  0  0  0  0  0  0  0  0  0  0
    0.8194   -0.5714   -1.8133 C   0  0  0  0  0  0  0  0  0  0  0  0
    0.3791   -1.5019    2.0018 C   0  0  0  0  0  0  0  0  0  0  0  0
    1.4217   -0.4706    2.1254 N   0  0  0  0  0  0  0  0  0  0  0  0
    2.0122   -0.4341    3.4096 C   0  0  0  0  0  0  0  0  0  0  0  0
    2.7303   -1.5327    3.9098 C   0  0  0  0  0  0  0  0  0  0  0  0
    3.2166   -1.5402    5.2205 C   0  0  0  0  0  0  0  0  0  0  0  0
    3.0227   -0.4297    6.0481 C   0  0  0  0  0  0  0  0  0  0  0  0
    2.4219    0.7134    5.5081 C   0  0  0  0  0  0  0  0  0  0  0  0
    1.9289    0.7159    4.2022 C   0  0  0  0  0  0  0  0  0  0  0  0
    2.9721   -0.6923    7.5186 C   0  0  0  0  0  0  0  0  0  0  0  0
    2.9722   -1.8438    7.9486 O   0  0  0  0  0  0  0  0  0  0  0  0
    2.8394    0.4158    8.3342 N   0  0  0  0  0  0  0  0  0  0  0  0
    2.6201   -2.9674    0.1955 C   0  0  0  0  0  0  0  0  0  0  0  0
    2.5579   -3.8547    1.0408 O   0  0  0  0  0  0  0  0  0  0  0  0
    3.0775    2.1925   -4.1317 H   0  0  0  0  0  0  0  0  0  0  0  0
    1.7888    1.5408   -4.9232 H   0  0  0  0  0  0  0  0  0  0  0  0
   -1.6277   -1.1041    0.3762 H   0  0  0  0  0  0  0  0  0  0  0  0
   -1.3235   -2.3880   -0.7954 H   0  0  0  0  0  0  0  0  0  0  0  0
   -1.1772   -0.3101   -1.9110 H   0  0  0  0  0  0  0  0  0  0  0  0
   -0.5904   -1.0679    2.2911 H   0  0  0  0  0  0  0  0  0  0  0  0
    0.5427   -2.3481    2.6911 H   0  0  0  0  0  0  0  0  0  0  0  0
    1.0535    0.4477    1.8718 H   0  0  0  0  0  0  0  0  0  0  0  0
    2.8411   -2.4338    3.3106 H   0  0  0  0  0  0  0  0  0  0  0  0
    3.6449   -2.4639    5.6013 H   0  0  0  0  0  0  0  0  0  0  0  0
    2.4743    1.6647    6.0406 H   0  0  0  0  0  0  0  0  0  0  0  0
    1.4796    1.6259    3.8114 H   0  0  0  0  0  0  0  0  0  0  0  0
    2.7924    0.2312    9.3353 H   0  0  0  0  0  0  0  0  0  0  0  0
    2.1529    1.1213    8.0730 H   0  0  0  0  0  0  0  0  0  0  0  0
    3.5315   -2.8361   -0.4116 H   0  0  0  0  0  0  0  0  0  0  0  0
  2  1  2  0  0  0  0
  3  2  1  0  0  0  0
  4  2  1  0  0  0  0
  4  5  1  0  0  0  0
  6  4  1  0  0  0  0
  7  6  2  0  0  0  0
  8  6  1  0  0  0  0
  9  8  1  0  0  0  0
 10  9  1  0  0  0  0
 10 11  1  0  0  0  0
 12 10  1  0  0  0  0
 13 12  1  0  0  0  0
 14 13  1  0  0  0  0
 14  1  1  0  0  0  0
 14  8  2  0  0  0  0
 15 10  1  0  0  0  0
 16 15  1  0  0  0  0
 17 16  1  0  0  0  0
 18 17  2  0  0  0  0
 19 18  1  0  0  0  0
 20 19  2  0  0  0  0
 21 20  1  0  0  0  0
 22 21  2  0  0  0  0
 22 17  1  0  0  0  0
 23 20  1  0  0  0  0
 24 23  2  0  0  0  0
 25 23  1  0  0  0  0
 26  9  1  0  0  0  0
 27 26  2  0  0  0  0
  3 28  1  0  0  0  0
  3 29  1  0  0  0  0
 12 30  1  0  0  0  0
 12 31  1  0  0  0  0
 13 32  1  0  0  0  0
 15 33  1  0  0  0  0
 15 34  1  0  0  0  0
 16 35  1  0  0  0  0
 18 36  1  0  0  0  0
 19 37  1  0  0  0  0
 21 38  1  0  0  0  0
 22 39  1  0  0  0  0
 25 40  1  0  0  0  0
 25 41  1  0  0  0  0
 26 42  1  0  0  0  0
M  END
>  <energy>
132.47162073557519

$$$$
