REMARK  6 active torsions:
REMARK  status: ('A' for Active; 'I' for Inactive)
REMARK    1  A    between atoms: N_3  and  C_2 
REMARK    2  A    between atoms: C_25  and  N_9 
REMARK    3  A    between atoms: C_14  and  C_10 
REMARK    4  A    between atoms: N_15  and  C_14 
REMARK    5  A    between atoms: C_16  and  N_15 
REMARK    6  A    between atoms: C_22  and  C_19 
REMARK       I    between atoms: N_24  and  C_22 
ROOT
ATOM      1  N   UNL d   1       1.083   0.013  -3.045  0.00  0.00    -0.200 NA
ATOM      2  C   UNL d   1       2.215   0.649  -3.160  0.00  0.00     0.181 C 
ATOM      3  N   UNL d   1       3.096   0.715  -2.091  0.00  0.00    -0.296 N 
ATOM      4  H   UNL d   1       3.900   1.329  -2.167  0.00  0.00     0.171 HD
ATOM      5  C   UNL d   1       3.046  -0.179  -1.028  0.00  0.00     0.278 C 
ATOM      6  O   UNL d   1       3.915  -0.278  -0.170  0.00  0.00    -0.265 OA
ATOM      7  C   UNL d   1       1.849  -1.064  -1.092  0.00  0.00     0.152 C 
ATOM      8  N   UNL d   1       1.625  -2.046  -0.135  0.00  0.00    -0.310 N 
ATOM      9  C   UNL d   1       0.330  -2.087   0.570  0.00  0.00     0.123 C 
ATOM     10  C   UNL d   1      -0.854  -1.551  -0.259  0.00  0.00     0.148 C 
ATOM     11  N   UNL d   1      -0.447  -0.567  -1.250  0.00  0.00    -0.371 N 
ATOM     12  C   UNL d   1       0.819  -0.571  -1.813  0.00  0.00     0.159 C 
ATOM     13  H   UNL d   1      -1.177  -0.310  -1.911  0.00  0.00     0.161 HD
ENDROOT
BRANCH   9  14
ATOM     14  C   UNL d   1       0.379  -1.502   2.002  0.00  0.00     0.120 C 
BRANCH  14  15
ATOM     15  N   UNL d   1       1.422  -0.471   2.125  0.00  0.00    -0.291 NA
ATOM     16  H   UNL d   1       1.054   0.448   1.872  0.00  0.00     0.127 HD
BRANCH  15  17
ATOM     17  C   UNL d   1       2.012  -0.434   3.410  0.00  0.00     0.008 A 
ATOM     18  C   UNL d   1       2.730  -1.533   3.910  0.00  0.00     0.024 A 
ATOM     19  C   UNL d   1       3.217  -1.540   5.221  0.00  0.00     0.018 A 
ATOM     20  C   UNL d   1       3.023  -0.430   6.048  0.00  0.00     0.026 A 
ATOM     21  C   UNL d   1       2.422   0.713   5.508  0.00  0.00     0.018 A 
ATOM     22  C   UNL d   1       1.929   0.716   4.202  0.00  0.00     0.024 A 
BRANCH  20  23
ATOM     23  C   UNL d   1       2.972  -0.692   7.519  0.00  0.00     0.228 C 
ATOM     24  O   UNL d   1       2.972  -1.844   7.949  0.00  0.00    -0.274 OA
ATOM     25  N   UNL d   1       2.839   0.416   8.334  0.00  0.00    -0.268 NA
ATOM     26  H   UNL d   1       2.792   0.231   9.335  0.00  0.00     0.127 HD
ATOM     27  H   UNL d   1       2.153   1.121   8.073  0.00  0.00     0.127 HD
ENDBRANCH  20  23
ENDBRANCH  15  17
ENDBRANCH  14  15
ENDBRANCH   9  14
BRANCH   8  28
ATOM     28  C   UNL d   1       2.620  -2.967   0.196  0.00  0.00     0.356 C 
ATOM     29  O   UNL d   1       2.558  -3.855   1.041  0.00  0.00    -0.283 OA
ENDBRANCH   8  28
BRANCH   2  30
ATOM     30  N   UNL d   1       2.570   1.328  -4.304  0.00  0.00    -0.272 NA
ATOM     31  H   UNL d   1       3.078   2.192  -4.132  0.00  0.00     0.127 HD
ATOM     32  H   UNL d   1       1.789   1.541  -4.923  0.00  0.00     0.127 HD
ENDBRANCH   2  30
TORSDOF 6
