@<TRIPOS>MOLECULE
4LVV_FFO_A_101
 42 44 0 0 0
SMALL
GASTEIGER

@<TRIPOS>ATOM
      1 N           1.0825    0.0135   -3.0451 N.ar    1  UNL1       -0.1994
      2 C           2.2149    0.6486   -3.1602 C.ar    1  UNL1        0.1948
      3 N           2.5698    1.3284   -4.3043 N.pl3   1  UNL1       -0.3289
      4 N           3.0958    0.7146   -2.0905 N.ar    1  UNL1       -0.2937
      5 H           3.8995    1.3288   -2.1665 H       1  UNL1        0.1716
      6 C           3.0458   -0.1786   -1.0278 C.ar    1  UNL1        0.2761
      7 O           3.9149   -0.2775   -0.1700 O.2     1  UNL1       -0.2657
      8 C           1.8494   -1.0642   -1.0920 C.ar    1  UNL1        0.1416
      9 N           1.6252   -2.0459   -0.1347 N.am    1  UNL1       -0.2607
     10 C           0.3303   -2.0866    0.5696 C.3     1  UNL1        0.0619
     11 H           0.1212   -3.1557    0.7207 H       1  UNL1        0.0535
     12 C          -0.8540   -1.5507   -0.2585 C.3     1  UNL1        0.0310
     13 N          -0.4467   -0.5668   -1.2502 N.pl3   1  UNL1       -0.3255
     14 C           0.8194   -0.5714   -1.8133 C.ar    1  UNL1        0.1493
     15 C           0.3791   -1.5019    2.0018 C.3     1  UNL1        0.0296
     16 N           1.4217   -0.4706    2.1254 N.pl3   1  UNL1       -0.3420
     17 C           2.0122   -0.4341    3.4096 C.ar    1  UNL1        0.0272
     18 C           2.7303   -1.5327    3.9098 C.ar    1  UNL1       -0.0401
     19 C           3.2166   -1.5402    5.2205 C.ar    1  UNL1       -0.0479
     20 C           3.0227   -0.4297    6.0481 C.ar    1  UNL1        0.0366
     21 C           2.4219    0.7134    5.5081 C.ar    1  UNL1       -0.0479
     22 C           1.9289    0.7159    4.2022 C.ar    1  UNL1       -0.0401
     23 C           2.9721   -0.6923    7.5186 C.2     1  UNL1        0.2415
     24 O           2.9722   -1.8438    7.9486 O.2     1  UNL1       -0.2704
     25 N           2.8394    0.4158    8.3342 N.am    1  UNL1       -0.3253
     26 C           2.6201   -2.9674    0.1955 C.2     1  UNL1        0.2073
     27 O           2.5579   -3.8547    1.0408 O.2     1  UNL1       -0.2790
     28 H           3.0775    2.1925   -4.1317 H       1  UNL1        0.1451
     29 H           1.7888    1.5408   -4.9232 H       1  UNL1        0.1451
     30 H          -1.6277   -1.1041    0.3762 H       1  UNL1        0.0480
     31 H          -1.3235   -2.3880   -0.7954 H       1  UNL1        0.0480
     32 H          -1.1772   -0.3101   -1.9110 H       1  UNL1        0.1476
     33 H          -0.5904   -1.0679    2.2911 H       1  UNL1        0.0480
     34 H           0.5427   -2.3481    2.6911 H       1  UNL1        0.0480
     35 H           1.0535    0.4477    1.8718 H       1  UNL1        0.1461
     36 H           2.8411   -2.4338    3.3106 H       1  UNL1        0.0636
     37 H           3.6449   -2.4639    5.6013 H       1  UNL1        0.0626
     38 H           2.4743    1.6647    6.0406 H       1  UNL1        0.0626
     39 H           1.4796    1.6259    3.8114 H       1  UNL1        0.0636
     40 H           2.7924    0.2312    9.3353 H       1  UNL1        0.1453
     41 H           2.1529    1.1213    8.0730 H       1  UNL1        0.1453
     42 H           3.5315   -2.8361   -0.4116 H       1  UNL1        0.1257
@<TRIPOS>BOND
     1     2     1   ar
     2     3     2    1
     3     4     2   ar
     4     4     5    1
     5     6     4   ar
     6     7     6    2
     7     8     6   ar
     8     9     8    1
     9    10     9    1
    10    10    11    1
    11    12    10    1
    12    13    12    1
    13    14    13    1
    14    14     1   ar
    15    14     8   ar
    16    15    10    1
    17    16    15    1
    18    17    16    1
    19    18    17   ar
    20    19    18   ar
    21    20    19   ar
    22    21    20   ar
    23    22    21   ar
    24    22    17   ar
    25    23    20    1
    26    24    23    2
    27    25    23   am
    28    26     9   am
    29    27    26    2
    30     3    28    1
    31     3    29    1
    32    12    30    1
    33    12    31    1
    34    13    32    1
    35    15    33    1
    36    15    34    1
    37    16    35    1
    38    18    36    1
    39    19    37    1
    40    21    38    1
    41    22    39    1
    42    25    40    1
    43    25    41    1
    44    26    42    1
