@<TRIPOS>MOLECULE
ligand.pdb
 51 53 0 0 0
SMALL
GASTEIGER

@<TRIPOS>ATOM
      1 N          -1.5377   -6.0019    0.0243 N.3     1  UNL1       -0.3184
      2 CA         -2.2503   -5.6686    1.2534 C.3     1  UNL1        0.1039
      3 HA         -1.9429   -6.4121    1.9980 H       1  UNL1        0.0574
      4 C          -3.7429   -5.8570    1.0769 C.2     1  UNL1        0.3217
      5 O          -4.5213   -5.9990    2.0119 O.2     1  UNL1       -0.2493
      6 OXT        -4.1416   -5.8539   -0.2174 O.3     1  UNL1       -0.4795
      7 C          -1.8928   -4.2842    1.8197 C.3     1  UNL1       -0.0199
      8 C          -2.4056   -3.0717    1.0538 C.3     1  UNL1       -0.0230
      9 S          -1.2278   -2.3623   -0.1314 S.3     1  UNL1       -0.2533
     10 H          -1.3699   -1.0278   -0.0795 H       1  UNL1        0.0821
     11 C          -1.6877   -2.8698   -1.7898 C.3     1  UNL1       -0.0366
     12 C           0.5108   -2.7337    0.2270 C.3     1  UNL1        0.0041
     13 C           1.4471   -2.1445   -0.8196 C.3     1  UNL1        0.0970
     14 H           1.0868   -2.3553   -1.8362 H       1  UNL1        0.0631
     15 O           1.5048   -0.7207   -0.6463 O.3     1  UNL1       -0.3472
     16 C           2.7860   -0.2622   -1.1191 C.3     1  UNL1        0.1666
     17 H           2.6202    0.2248   -2.0915 H       1  UNL1        0.0866
     18 C           3.6855   -1.4939   -1.2797 C.3     1  UNL1        0.1285
     19 H           4.6919   -1.3974   -0.8515 H       1  UNL1        0.0665
     20 C           2.8831   -2.6009   -0.6227 C.3     1  UNL1        0.1121
     21 H           3.1334   -2.6751    0.4401 H       1  UNL1        0.0647
     22 O           3.1098   -3.8669   -1.2156 O.3     1  UNL1       -0.3865
     23 O           3.8331   -1.7507   -2.6762 O.3     1  UNL1       -0.3847
     24 N           3.2455    0.7741   -0.1992 N.ar    1  UNL1       -0.2855
     25 C           3.5009    2.0560   -0.6391 C.ar    1  UNL1        0.1004
     26 N           4.4167    2.6642    0.0776 N.ar    1  UNL1       -0.2306
     27 C           4.7863    1.7520    1.0309 C.ar    1  UNL1        0.1473
     28 C           5.7144    1.8263    2.0800 C.ar    1  UNL1        0.1472
     29 N           6.5177    2.9621    2.2680 N.pl3   1  UNL1       -0.3413
     30 N           5.8586    0.7209    2.8661 N.ar    1  UNL1       -0.2188
     31 C           5.0212   -0.3242    2.6615 C.ar    1  UNL1        0.1205
     32 N           3.9822   -0.4061    1.8045 N.ar    1  UNL1       -0.2159
     33 C           4.0617    0.5782    0.8896 C.ar    1  UNL1        0.1674
     34 H1         -0.6089   -5.5859    0.0251 H       1  UNL1        0.1190
     35 H2         -2.0284   -5.6203   -0.7811 H       1  UNL1        0.1190
     36 HXT        -5.1012   -6.0339   -0.3113 H       1  UNL1        0.2951
     37 H          -0.8077   -4.2117    1.9514 H       1  UNL1        0.0293
     38 H          -2.3007   -4.2308    2.8391 H       1  UNL1        0.0293
     39 H          -3.3363   -3.2964    0.5262 H       1  UNL1        0.0360
     40 H          -2.6478   -2.2755    1.7642 H       1  UNL1        0.0360
     41 H          -1.0091   -3.6386   -2.1568 H       1  UNL1        0.0324
     42 H          -2.6977   -3.2834   -1.7973 H       1  UNL1        0.0324
     43 H          -1.6528   -2.0108   -2.4653 H       1  UNL1        0.0324
     44 H           0.6373   -3.8176    0.2584 H       1  UNL1        0.0385
     45 H           0.7408   -2.3379    1.2248 H       1  UNL1        0.0385
     46 H           2.9982   -3.7623   -2.1761 H       1  UNL1        0.2100
     47 H           4.7450   -2.0667   -2.8086 H       1  UNL1        0.2101
     48 H           2.8912    2.5195   -1.4058 H       1  UNL1        0.1030
     49 H           7.2946    2.9581    1.6091 H       1  UNL1        0.1438
     50 H           6.8740    2.9948    3.2207 H       1  UNL1        0.1438
     51 H           5.1336   -1.1592    3.3441 H       1  UNL1        0.1048
@<TRIPOS>BOND
     1     2     1    1
     2     2     3    1
     3     4     2    1
     4     5     4    2
     5     6     4    1
     6     7     2    1
     7     8     7    1
     8     9     8    1
     9     9    10    1
    10    11     9    1
    11    12     9    1
    12    13    12    1
    13    13    14    1
    14    15    13    1
    15    16    15    1
    16    16    17    1
    17    18    16    1
    18    18    19    1
    19    20    18    1
    20    20    21    1
    21    20    13    1
    22    22    20    1
    23    23    18    1
    24    24    16    1
    25    25    24   ar
    26    26    25   ar
    27    27    26   ar
    28    28    27   ar
    29    29    28    1
    30    30    28   ar
    31    31    30   ar
    32    32    31   ar
    33    33    32   ar
    34    33    24   ar
    35    33    27   ar
    36     1    34    1
    37     1    35    1
    38     6    36    1
    39     7    37    1
    40     7    38    1
    41     8    39    1
    42     8    40    1
    43    11    41    1
    44    11    42    1
    45    11    43    1
    46    12    44    1
    47    12    45    1
    48    22    46    1
    49    23    47    1
    50    25    48    1
    51    29    49    1
    52    29    50    1
    53    31    51    1
