ligand.pdb
  1228              3D

 51 53  0  0  0  0  0  0  0  0999 V2000
   -1.5377   -6.0019    0.0243 N   0  0  0  0  0  0  0  0  0  0  0  0
   -2.2503   -5.6686    1.2534 C   0  0  0  0  0  0  0  0  0  0  0  0
   -1.9429   -6.4121    1.9980 H   0  0  0  0  0  0  0  0  0  0  0  0
   -3.7429   -5.8570    1.0769 C   0  0  0  0  0  0  0  0  0  0  0  0
   -4.5213   -5.9990    2.0119 O   0  0  0  0  0  0  0  0  0  0  0  0
   -4.1416   -5.8539   -0.2174 O   0  0  0  0  0  0  0  0  0  0  0  0
   -1.8928   -4.2842    1.8197 C   0  0  0  0  0  0  0  0  0  0  0  0
   -2.4056   -3.0717    1.0538 C   0  0  0  0  0  0  0  0  0  0  0  0
   -1.2278   -2.3623   -0.1314 S   0  0  0  0  0  0  0  0  0  0  0  0
   -1.3699   -1.0278   -0.0795 H   0  0  0  0  0  0  0  0  0  0  0  0
   -1.6877   -2.8698   -1.7898 C   0  0  0  0  0  0  0  0  0  0  0  0
    0.5108   -2.7337    0.2270 C   0  0  0  0  0  0  0  0  0  0  0  0
    1.4471   -2.1445   -0.8196 C   0  0  0  0  0  0  0  0  0  0  0  0
    1.0868   -2.3553   -1.8362 H   0  0  0  0  0  0  0  0  0  0  0  0
    1.5048   -0.7207   -0.6463 O   0  0  0  0  0  0  0  0  0  0  0  0
    2.7860   -0.2622   -1.1191 C   0  0  0  0  0  0  0  0  0  0  0  0
    2.6202    0.2248   -2.0915 H   0  0  0  0  0  0  0  0  0  0  0  0
    3.6855   -1.4939   -1.2797 C   0  0  0  0  0  0  0  0  0  0  0  0
    4.6919   -1.3974   -0.8515 H   0  0  0  0  0  0  0  0  0  0  0  0
    2.8831   -2.6009   -0.6227 C   0  0  0  0  0  0  0  0  0  0  0  0
    3.1334   -2.6751    0.4401 H   0  0  0  0  0  0  0  0  0  0  0  0
    3.1098   -3.8669   -1.2156 O   0  0  0  0  0  0  0  0  0  0  0  0
    3.8331   -1.7507   -2.6762 O   0  0  0  0  0  0  0  0  0  0  0  0
    3.2455    0.7741   -0.1992 N   0  0  0  0  0  0  0  0  0  0  0  0
    3.5009    2.0560   -0.6391 C   0  0  0  0  0  0  0  0  0  0  0  0
    4.4167    2.6642    0.0776 N   0  0  0  0  0  0  0  0  0  0  0  0
    4.7863    1.7520    1.0309 C   0  0  0  0  0  0  0  0  0  0  0  0
    5.7144    1.8263    2.0800 C   0  0  0  0  0  0  0  0  0  0  0  0
    6.5177    2.9621    2.2680 N   0  0  0  0  0  0  0  0  0  0  0  0
    5.8586    0.7209    2.8661 N   0  0  0  0  0  0  0  0  0  0  0  0
    5.0212   -0.3242    2.6615 C   0  0  0  0  0  0  0  0  0  0  0  0
    3.9822   -0.4061    1.8045 N   0  0  0  0  0  0  0  0  0  0  0  0
    4.0617    0.5782    0.8896 C   0  0  0  0  0  0  0  0  0  0  0  0
   -0.6089   -5.5859    0.0251 H   0  0  0  0  0  0  0  0  0  0  0  0
   -2.0284   -5.6203   -0.7811 H   0  0  0  0  0  0  0  0  0  0  0  0
   -5.1012   -6.0339   -0.3113 H   0  0  0  0  0  0  0  0  0  0  0  0
   -0.8077   -4.2117    1.9514 H   0  0  0  0  0  0  0  0  0  0  0  0
   -2.3007   -4.2308    2.8391 H   0  0  0  0  0  0  0  0  0  0  0  0
   -3.3363   -3.2964    0.5262 H   0  0  0  0  0  0  0  0  0  0  0  0
   -2.6478   -2.2755    1.7642 H   0  0  0  0  0  0  0  0  0  0  0  0
   -1.0091   -3.6386   -2.1568 H   0  0  0  0  0  0  0  0  0  0  0  0
   -2.6977   -3.2834   -1.7973 H   0  0  0  0  0  0  0  0  0  0  0  0
   -1.6528   -2.0108   -2.4653 H   0  0  0  0  0  0  0  0  0  0  0  0
    0.6373   -3.8176    0.2584 H   0  0  0  0  0  0  0  0  0  0  0  0
    0.7408   -2.3379    1.2248 H   0  0  0  0  0  0  0  0  0  0  0  0
    2.9982   -3.7623   -2.1761 H   0  0  0  0  0  0  0  0  0  0  0  0
    4.7450   -2.0667   -2.8086 H   0  0  0  0  0  0  0  0  0  0  0  0
    2.8912    2.5195   -1.4058 H   0  0  0  0  0  0  0  0  0  0  0  0
    7.2946    2.9581    1.6091 H   0  0  0  0  0  0  0  0  0  0  0  0
    6.8740    2.9948    3.2207 H   0  0  0  0  0  0  0  0  0  0  0  0
    5.1336   -1.1592    3.3441 H   0  0  0  0  0  0  0  0  0  0  0  0
  2  1  1  0  0  0  0
  2  3  1  0  0  0  0
  4  2  1  0  0  0  0
  5  4  2  0  0  0  0
  6  4  1  0  0  0  0
  7  2  1  0  0  0  0
  8  7  1  0  0  0  0
  9  8  1  0  0  0  0
  9 10  1  0  0  0  0
 11  9  1  0  0  0  0
 12  9  1  0  0  0  0
 13 12  1  0  0  0  0
 13 14  1  0  0  0  0
 15 13  1  0  0  0  0
 16 15  1  0  0  0  0
 16 17  1  0  0  0  0
 18 16  1  0  0  0  0
 18 19  1  0  0  0  0
 20 18  1  0  0  0  0
 20 21  1  0  0  0  0
 20 13  1  0  0  0  0
 22 20  1  0  0  0  0
 23 18  1  0  0  0  0
 24 16  1  0  0  0  0
 25 24  1  0  0  0  0
 26 25  2  0  0  0  0
 27 26  1  0  0  0  0
 28 27  1  0  0  0  0
 29 28  1  0  0  0  0
 30 28  2  0  0  0  0
 31 30  1  0  0  0  0
 32 31  2  0  0  0  0
 33 32  1  0  0  0  0
 33 24  1  0  0  0  0
 33 27  2  0  0  0  0
  1 34  1  0  0  0  0
  1 35  1  0  0  0  0
  6 36  1  0  0  0  0
  7 37  1  0  0  0  0
  7 38  1  0  0  0  0
  8 39  1  0  0  0  0
  8 40  1  0  0  0  0
 11 41  1  0  0  0  0
 11 42  1  0  0  0  0
 11 43  1  0  0  0  0
 12 44  1  0  0  0  0
 12 45  1  0  0  0  0
 22 46  1  0  0  0  0
 23 47  1  0  0  0  0
 25 48  1  0  0  0  0
 29 49  1  0  0  0  0
 29 50  1  0  0  0  0
 31 51  1  0  0  0  0
M  END
>  <energy>
73.915681438157989

$$$$
