REMARK  12 active torsions:
REMARK  status: ('A' for Active; 'I' for Inactive)
REMARK    1  A    between atoms: CA_2  and  N_1 
REMARK    2  A    between atoms: C_3  and  CA_2 
REMARK    3  A    between atoms: C_6  and  CA_2 
REMARK    4  A    between atoms: OXT_5  and  C_3 
REMARK    5  A    between atoms: C_7  and  C_6 
REMARK    6  A    between atoms: S_8  and  C_7 
REMARK    7  A    between atoms: C_11  and  S_8 
REMARK    8  A    between atoms: C_12  and  C_11 
REMARK    9  A    between atoms: N_19  and  C_14 
REMARK   10  A    between atoms: O_18  and  C_15 
REMARK   11  A    between atoms: O_17  and  C_16 
REMARK   12  A    between atoms: N_24  and  C_23 
ROOT
ATOM      1  C   UNL d   1       1.447  -2.144  -0.820  0.00  0.00     0.163 C 
ATOM      2  O   UNL d   1       1.505  -0.721  -0.646  0.00  0.00    -0.355 OA
ATOM      3  C   UNL d   1       2.786  -0.262  -1.119  0.00  0.00     0.262 C 
ATOM      4  C   UNL d   1       3.686  -1.494  -1.280  0.00  0.00     0.198 C 
ATOM      5  C   UNL d   1       2.883  -2.601  -0.623  0.00  0.00     0.180 C 
ENDROOT
BRANCH   1   6
ATOM      6  C   UNL d   1       0.511  -2.734   0.227  0.00  0.00     0.086 C 
BRANCH   6   7
ATOM      7  S   UNL d   1      -1.228  -2.362  -0.131  0.00  0.00    -0.264 SA
ATOM      8  H   UNL d   1      -1.370  -1.028  -0.080  0.00  0.00     0.081 HD
ATOM      9  C   UNL d   1      -1.688  -2.870  -1.790  0.00  0.00     0.066 C 
BRANCH   7  10
ATOM     10  C   UNL d   1      -2.406  -3.072   1.054  0.00  0.00     0.054 C 
BRANCH  10  11
ATOM     11  C   UNL d   1      -1.893  -4.284   1.820  0.00  0.00     0.055 C 
BRANCH  11  12
ATOM     12  CA  UNL d   1      -2.250  -5.669   1.253  0.00  0.00     0.315 C 
BRANCH  12  13
ATOM     13  N   UNL d   1      -1.538  -6.002   0.024  0.00  0.00     0.093 N 
ATOM     14  H1  UNL d   1      -0.609  -5.586   0.025  0.00  0.00     0.314 HD
ATOM     15  H2  UNL d   1      -2.028  -5.620  -0.781  0.00  0.00     0.314 HD
ENDBRANCH  12  13
BRANCH  12  16
ATOM     16  C   UNL d   1      -3.743  -5.857   1.077  0.00  0.00     0.173 C 
ATOM     17  O   UNL d   1      -4.521  -5.999   2.012  0.00  0.00    -0.648 OA
BRANCH  16  18
ATOM     18  OXT UNL d   1      -4.142  -5.854  -0.217  0.00  0.00    -0.775 OA
ATOM     19  HXT UNL d   1      -5.101  -6.034  -0.311  0.00  0.00     0.167 HD
ENDBRANCH  16  18
ENDBRANCH  12  16
ENDBRANCH  11  12
ENDBRANCH  10  11
ENDBRANCH   7  10
ENDBRANCH   6   7
ENDBRANCH   1   6
BRANCH   5  20
ATOM     20  O   UNL d   1       3.110  -3.867  -1.216  0.00  0.00    -0.390 OA
ATOM     21  H   UNL d   1       2.998  -3.762  -2.176  0.00  0.00     0.210 HD
ENDBRANCH   5  20
BRANCH   3  22
ATOM     22  N   UNL d   1       3.245   0.774  -0.199  0.00  0.00    -0.294 N 
ATOM     23  C   UNL d   1       3.501   2.056  -0.639  0.00  0.00     0.214 A 
ATOM     24  N   UNL d   1       4.417   2.664   0.078  0.00  0.00    -0.236 NA
ATOM     25  C   UNL d   1       4.786   1.752   1.031  0.00  0.00     0.144 A 
ATOM     26  C   UNL d   1       5.714   1.826   2.080  0.00  0.00     0.135 C 
ATOM     27  C   UNL d   1       4.062   0.578   0.890  0.00  0.00     0.166 A 
ATOM     28  N   UNL d   1       5.859   0.721   2.866  0.00  0.00    -0.228 NA
ATOM     29  C   UNL d   1       5.021  -0.324   2.662  0.00  0.00     0.237 C 
ATOM     30  N   UNL d   1       3.982  -0.406   1.804  0.00  0.00    -0.222 NA
BRANCH  26  31
ATOM     31  N   UNL d   1       6.518   2.962   2.268  0.00  0.00    -0.285 NA
ATOM     32  H   UNL d   1       7.295   2.958   1.609  0.00  0.00     0.125 HD
ATOM     33  H   UNL d   1       6.874   2.995   3.221  0.00  0.00     0.125 HD
ENDBRANCH  26  31
ENDBRANCH   3  22
BRANCH   4  34
ATOM     34  O   UNL d   1       3.833  -1.751  -2.676  0.00  0.00    -0.388 OA
ATOM     35  H   UNL d   1       4.745  -2.067  -2.809  0.00  0.00     0.210 HD
ENDBRANCH   4  34
TORSDOF 12
