4F8U_SIS_A_101
 OpenBabel10091713583D
Coordinates from PDB:4F8U:A:101 Model:1 without hydrogens
 31 33  0  0  0  0  0  0  0  0999 V2000
  -30.9900   -0.3470   -5.6620 C   0  0  1  0  0  0  0  0  0  0  0  0
  -35.4860    2.2570   -7.1340 C   0  0  2  0  0  0  0  0  0  0  0  0
  -34.9280    1.6740  -10.4900 C   0  0  2  0  0  0  0  0  0  0  0  0
  -31.0210   -1.7890   -5.0320 C   0  0  1  0  0  0  0  0  0  0  0  0
  -34.7880    2.9470   -5.8800 C   0  0  0  0  0  0  0  0  0  0  0  0
  -36.2520    1.3460  -11.2170 C   0  0  1  0  0  0  0  0  0  0  0  0
  -30.9810   -1.6980   -3.4540 C   0  0  0  0  0  0  0  0  0  0  0  0
  -33.9520    1.8630   -5.0870 C   0  0  1  0  0  0  0  0  0  0  0  0
  -36.3680   -0.2360  -11.3280 C   0  0  2  0  0  0  0  0  0  0  0  0
  -29.9900   -0.5900   -2.9580 C   0  0  0  0  0  0  0  0  0  0  0  0
  -32.8770    1.2310   -6.0270 C   0  0  2  0  0  0  0  0  0  0  0  0
  -35.1220   -0.7970  -12.1790 C   0  0  1  0  0  0  0  0  0  0  0  0
  -29.4920    0.3320   -3.8080 C   0  0  0  0  0  0  0  0  0  0  0  0
  -33.5830    0.5830   -7.2990 C   0  0  1  0  0  0  0  0  0  0  0  0
  -33.7840   -0.3960  -11.4570 C   0  0  0  0  0  0  0  0  0  0  0  0
  -28.5120    1.4370   -3.3550 C   0  0  0  0  0  0  0  0  0  0  0  0
  -34.4010    1.6840   -8.0740 C   0  0  1  0  0  0  0  0  0  0  0  0
  -35.0750   -2.3370  -12.3810 C   0  0  0  0  0  0  0  0  0  0  0  0
  -38.7860   -0.8850  -11.1190 C   0  0  0  0  0  0  0  0  0  0  0  0
  -36.2430    3.2270   -7.8660 N   0  0  0  0  0  0  0  0  0  0  0  0
  -32.2370   -2.4670   -5.4970 N   0  0  0  0  0  0  0  0  0  0  0  0
  -33.2710    2.4780   -3.9200 N   0  0  0  0  0  0  0  0  0  0  0  0
  -37.6420   -0.6000  -12.0090 N   0  0  0  0  0  0  0  0  0  0  0  0
  -29.0710    2.7320   -3.6980 N   0  0  0  0  0  0  0  0  0  0  0  0
  -32.1970    0.2630   -5.2660 O   0  0  0  0  0  0  0  0  0  0  0  0
  -37.3310    1.8840  -10.4850 O   0  0  0  0  0  0  0  0  0  0  0  0
  -35.1240   -0.2600  -13.4910 O   0  0  0  0  0  0  0  0  0  0  0  0
  -29.8200    0.3730   -5.2030 O   0  0  0  0  0  0  0  0  0  0  0  0
  -32.5770    0.0540   -8.1680 O   0  0  0  0  0  0  0  0  0  0  0  0
  -33.7590    1.1070  -11.2200 O   0  0  0  0  0  0  0  0  0  0  0  0
  -35.0240    1.0960   -9.1770 O   0  0  0  0  0  0  0  0  0  0  0  0
  1 25  1  1  0  0  0
  1 28  1  0  0  0  0
  1  4  1  0  0  0  0
  2 20  1  6  0  0  0
  2  5  1  0  0  0  0
  3 31  1  1  0  0  0
  4 21  1  1  0  0  0
  4  7  1  0  0  0  0
  5  8  1  0  0  0  0
  6  3  1  0  0  0  0
  6 26  1  1  0  0  0
  7 10  1  0  0  0  0
  8 22  1  1  0  0  0
  9 23  1  6  0  0  0
  9  6  1  0  0  0  0
 11 25  1  1  0  0  0
 11  8  1  0  0  0  0
 12 18  1  6  0  0  0
 12 15  1  0  0  0  0
 12  9  1  0  0  0  0
 13 16  1  0  0  0  0
 13 10  2  0  0  0  0
 14 29  1  6  0  0  0
 14 11  1  0  0  0  0
 15 30  1  0  0  0  0
 17 31  1  6  0  0  0
 17 14  1  0  0  0  0
 17  2  1  0  0  0  0
 23 19  1  0  0  0  0
 24 16  1  0  0  0  0
 27 12  1  0  0  0  0
 28 13  1  0  0  0  0
 30  3  1  0  0  0  0
A    1
C11
A    2
C12
A    3
C13
A    4
C21
A    5
C22
A    6
C23
A    7
C31
A    8
C32
A    9
C33
A   10
C41
A   11
C42
A   12
C43
A   13
C51
A   14
C52
A   15
C53
A   16
C61
A   17
C62
A   18
C83
A   19
C93
A   20
N12
A   21
N21
A   22
N32
A   23
N33
A   24
N61
A   25
O11
A   26
O23
A   27
O43
A   28
O51
A   29
O52
A   30
O53
A   31
O62
M  END
>  <InstanceId>
4F8U_SIS_A_101

>  <ChemCompId>
SIS

>  <PdbId>
4F8U

>  <ChainId>
A

>  <ResidueNumber>
101

>  <InsertionCode>


>  <Model>
1

>  <AltIds>


>  <MissingHeavyAtoms>
0

>  <ObservedFormula>
C19 N5 O7

>  <Name>
(1S,2S,3R,4S,6R)-4,6-diamino-3-{[(2S,3R)-3-amino-6-(aminomethyl)-3,4-dihydro-2H-pyran-2-yl]oxy}-2-hydroxycyclohexyl 3-deoxy-4-C-methyl-3-(methylamino)-beta-L-arabinopyranoside

>  <SystematicName>
(2R,3R,4R,5R)-2-[(1S,2S,3R,4S,6R)-3-[[(2S,3R)-6-(aminomethyl)-3-azanyl-3,4-dihydro-2H-pyran-2-yl]oxy]-4,6-bis(azanyl)-2-oxidanyl-cyclohexyl]oxy-5-methyl-4-(methylamino)oxane-3,5-diol

>  <Synonyms>
Sisomicin

>  <Type>
NON-POLYMER

>  <Formula>
C19 H37 N5 O7

>  <MolecularWeight>
447.526

>  <ModifiedDate>
2012-08-10

>  <Parent>


>  <OneLetterCode>


>  <SubcomponentList>


>  <AmbiguousFlag>
N

>  <InChI>
InChI=1S/C19H37N5O7/c1-19(27)7-28-18(13(26)16(19)24-2)31-15-11(23)5-10(22)14(12(15)25)30-17-9(21)4-3-8(6-20)29-17/h3,9-18,24-27H,4-7,20-23H2,1-2H3/t9-,10+,11-,12+,13-,14-,15+,16-,17-,18-,19+/m1/s1

>  <InChIKey>
URWAJWIAIPFPJE-YFMIWBNJSA-N

>  <SMILES>
C[C@@]1(CO[C@@H]([C@@H]([C@H]1NC)O)O[C@H]2[C@@H](C[C@@H]([C@H]([C@@H]2O)O[C@@H]3[C@@H](CC=C(O3)CN)N)N)N)O

$$$$
