@<TRIPOS>MOLECULE
4F8U_SIS_A_101
 31 33 0 0 0
SMALL
GASTEIGER
****
Coordinates from PDB:4F8U:A:101 Model:1 without hydrogens
@<TRIPOS>ATOM
      1 C         -30.9900   -0.3470   -5.6620 C.3     1  UNL1        0.3057
      2 C         -35.4860    2.2570   -7.1340 C.3     1  UNL1        0.1231
      3 C         -34.9280    1.6740  -10.4900 C.3     1  UNL1        0.2683
      4 C         -31.0210   -1.7890   -5.0320 C.3     1  UNL1        0.1660
      5 C         -34.7880    2.9470   -5.8800 C.3     1  UNL1        0.0432
      6 C         -36.2520    1.3460  -11.2170 C.3     1  UNL1        0.2262
      7 C         -30.9810   -1.6980   -3.4540 C.3     1  UNL1        0.0544
      8 C         -33.9520    1.8630   -5.0870 C.3     1  UNL1        0.1231
      9 C         -36.3680   -0.2360  -11.3280 C.3     1  UNL1        0.1384
     10 C         -29.9900   -0.5900   -2.9580 C.2     1  UNL1        0.0095
     11 C         -32.8770    1.2310   -6.0270 C.3     1  UNL1        0.1690
     12 C         -35.1220   -0.7970  -12.1790 C.3     1  UNL1        0.1710
     13 C         -29.4920    0.3320   -3.8080 C.2     1  UNL1        0.1338
     14 C         -33.5830    0.5830   -7.2990 C.3     1  UNL1        0.2088
     15 C         -33.7840   -0.3960  -11.4570 C.3     1  UNL1        0.1765
     16 C         -28.5120    1.4370   -3.3550 C.3     1  UNL1        0.1725
     17 C         -34.4010    1.6840   -8.0740 C.3     1  UNL1        0.1680
     18 C         -35.0750   -2.3370  -12.3810 C.3     1  UNL1        0.0371
     19 C         -38.7860   -0.8850  -11.1190 C.3     1  UNL1        0.1076
     20 N         -36.2430    3.2270   -7.8660 N.3     1  UNL1       -0.1302
     21 N         -32.2370   -2.4670   -5.4970 N.3     1  UNL1       -0.1259
     22 N         -33.2710    2.4780   -3.9200 N.3     1  UNL1       -0.1302
     23 N         -37.6420   -0.6000  -12.0090 N.3     1  UNL1       -0.2126
     24 N         -29.0710    2.7320   -3.6980 N.3     1  UNL1       -0.1228
     25 O         -32.1970    0.2630   -5.2660 O.3     1  UNL1       -0.3178
     26 O         -37.3310    1.8840  -10.4850 O.3     1  UNL1       -0.2161
     27 O         -35.1240   -0.2600  -13.4910 O.3     1  UNL1       -0.2215
     28 O         -29.8200    0.3730   -5.2030 O.2     1  UNL1       -0.4545
     29 O         -32.5770    0.0540   -8.1680 O.3     1  UNL1       -0.2178
     30 O         -33.7590    1.1070  -11.2200 O.3     1  UNL1       -0.3259
     31 O         -35.0240    1.0960   -9.1770 O.3     1  UNL1       -0.3269
@<TRIPOS>BOND
     1     1    25    1
     2     1    28    1
     3     1     4    1
     4     2    20    1
     5     2     5    1
     6     3    31    1
     7     4    21    1
     8     4     7    1
     9     5     8    1
    10     6     3    1
    11     6    26    1
    12     7    10    1
    13     8    22    1
    14     9    23    1
    15     9     6    1
    16    11    25    1
    17    11     8    1
    18    12    18    1
    19    12    15    1
    20    12     9    1
    21    13    16    1
    22    13    10    2
    23    14    29    1
    24    14    11    1
    25    15    30    1
    26    17    31    1
    27    17    14    1
    28    17     2    1
    29    23    19    1
    30    24    16    1
    31    27    12    1
    32    28    13    1
    33    30     3    1
