temp2.pdb
 OpenBabel10091713583D

 68 70  0  0  1  0  0  0  0  0999 V2000
  -30.9900   -0.3470   -5.6620 C   0  0  2  0  0  0  0  0  0  0  0  0
  -29.8200    0.3730   -5.2030 O   0  0  0  0  0  0  0  0  0  0  0  0
  -29.4920    0.3320   -3.8080 C   0  0  0  0  0  0  0  0  0  0  0  0
  -28.5120    1.4370   -3.3550 C   0  0  0  0  0  0  0  0  0  0  0  0
  -29.0710    2.7320   -3.6980 N   0  0  0  0  0  0  0  0  0  0  0  0
  -29.9900   -0.5900   -2.9580 C   0  0  0  0  0  0  0  0  0  0  0  0
  -30.9810   -1.6980   -3.4540 C   0  0  0  0  0  0  0  0  0  0  0  0
  -32.1970    0.2630   -5.2660 O   0  0  0  0  0  0  0  0  0  0  0  0
  -32.8770    1.2310   -6.0270 C   0  0  1  0  0  0  0  0  0  0  0  0
  -33.5830    0.5830   -7.2990 C   0  0  2  0  0  0  0  0  0  0  0  0
  -32.5770    0.0540   -8.1680 O   0  0  0  0  0  0  0  0  0  0  0  0
  -34.4010    1.6840   -8.0740 C   0  0  1  0  0  0  0  0  0  0  0  0
  -35.0240    1.0960   -9.1770 O   0  0  0  0  0  0  0  0  0  0  0  0
  -34.9280    1.6740  -10.4900 C   0  0  1  0  0  0  0  0  0  0  0  0
  -33.7590    1.1070  -11.2200 O   0  0  0  0  0  0  0  0  0  0  0  0
  -33.7840   -0.3960  -11.4570 C   0  0  0  0  0  0  0  0  0  0  0  0
  -35.1220   -0.7970  -12.1790 C   0  0  1  0  0  0  0  0  0  0  0  0
  -35.1240   -0.2600  -13.4910 O   0  0  0  0  0  0  0  0  0  0  0  0
  -35.0750   -2.3370  -12.3810 C   0  0  0  0  0  0  0  0  0  0  0  0
  -36.3680   -0.2360  -11.3280 C   0  0  2  0  0  0  0  0  0  0  0  0
  -37.6420   -0.6000  -12.0090 N   0  0  0  0  0  0  0  0  0  0  0  0
  -38.7860   -0.8850  -11.1190 C   0  0  0  0  0  0  0  0  0  0  0  0
  -36.2520    1.3460  -11.2170 C   0  0  1  0  0  0  0  0  0  0  0  0
  -37.3310    1.8840  -10.4850 O   0  0  0  0  0  0  0  0  0  0  0  0
  -35.4860    2.2570   -7.1340 C   0  0  2  0  0  0  0  0  0  0  0  0
  -36.2430    3.2270   -7.8660 N   0  0  0  0  0  0  0  0  0  0  0  0
  -34.7880    2.9470   -5.8800 C   0  0  0  0  0  0  0  0  0  0  0  0
  -33.9520    1.8630   -5.0870 C   0  0  2  0  0  0  0  0  0  0  0  0
  -33.2710    2.4780   -3.9200 N   0  0  0  0  0  0  0  0  0  0  0  0
  -31.0210   -1.7890   -5.0320 C   0  0  1  0  0  0  0  0  0  0  0  0
  -32.2370   -2.4670   -5.4970 N   0  0  0  0  0  0  0  0  0  0  0  0
  -30.9168   -0.3617   -6.7294 H   0  0  0  0  0  0  0  0  0  0  0  0
  -27.5724    1.3089   -3.8507 H   0  0  0  0  0  0  0  0  0  0  0  0
  -28.3614    1.3762   -2.2974 H   0  0  0  0  0  0  0  0  0  0  0  0
  -29.2126    2.7848   -4.7067 H   0  0  0  0  0  0  0  0  0  0  0  0
  -28.4281    3.4680   -3.4059 H   0  0  0  0  0  0  0  0  0  0  0  0
  -29.7135   -0.5651   -1.9640 H   0  0  0  0  0  0  0  0  0  0  0  0
  -31.9630   -1.4695   -3.0956 H   0  0  0  0  0  0  0  0  0  0  0  0
  -30.6420   -2.6398   -3.0758 H   0  0  0  0  0  0  0  0  0  0  0  0
  -32.1886    1.9641   -6.3926 H   0  0  0  0  0  0  0  0  0  0  0  0
  -34.2457   -0.1947   -6.9814 H   0  0  0  0  0  0  0  0  0  0  0  0
  -31.9836    0.7683   -8.4483 H   0  0  0  0  0  0  0  0  0  0  0  0
  -33.7453    2.4652   -8.3976 H   0  0  0  0  0  0  0  0  0  0  0  0
  -34.7801    2.7326  -10.4400 H   0  0  0  0  0  0  0  0  0  0  0  0
  -33.7202   -0.9051  -10.5181 H   0  0  0  0  0  0  0  0  0  0  0  0
  -32.9532   -0.6713  -12.0725 H   0  0  0  0  0  0  0  0  0  0  0  0
  -34.3664   -0.6106  -13.9850 H   0  0  0  0  0  0  0  0  0  0  0  0
  -34.2107   -2.5950  -12.9566 H   0  0  0  0  0  0  0  0  0  0  0  0
  -35.9560   -2.6560  -12.8978 H   0  0  0  0  0  0  0  0  0  0  0  0
  -35.0260   -2.8204  -11.4277 H   0  0  0  0  0  0  0  0  0  0  0  0
  -36.3592   -0.6661  -10.3483 H   0  0  0  0  0  0  0  0  0  0  0  0
  -37.4691   -1.4320  -12.5731 H   0  0  0  0  0  0  0  0  0  0  0  0
  -38.9898   -0.0263  -10.5140 H   0  0  0  0  0  0  0  0  0  0  0  0
  -38.5493   -1.7170  -10.4892 H   0  0  0  0  0  0  0  0  0  0  0  0
  -39.6476   -1.1181  -11.7091 H   0  0  0  0  0  0  0  0  0  0  0  0
  -36.2719    1.7739  -12.1975 H   0  0  0  0  0  0  0  0  0  0  0  0
  -37.3333    1.5096   -9.5902 H   0  0  0  0  0  0  0  0  0  0  0  0
  -36.1301    1.4774   -6.7844 H   0  0  0  0  0  0  0  0  0  0  0  0
  -35.6213    3.9656   -8.1951 H   0  0  0  0  0  0  0  0  0  0  0  0
  -36.9574    3.6292   -7.2592 H   0  0  0  0  0  0  0  0  0  0  0  0
  -35.5363    3.3619   -5.2375 H   0  0  0  0  0  0  0  0  0  0  0  0
  -34.1374    3.7274   -6.2156 H   0  0  0  0  0  0  0  0  0  0  0  0
  -34.6255    1.1066   -4.7418 H   0  0  0  0  0  0  0  0  0  0  0  0
  -32.6274    3.2001   -4.2436 H   0  0  0  0  0  0  0  0  0  0  0  0
  -32.7511    1.7615   -3.4133 H   0  0  0  0  0  0  0  0  0  0  0  0
  -30.1631   -2.3495   -5.3397 H   0  0  0  0  0  0  0  0  0  0  0  0
  -33.0562   -1.9342   -5.2047 H   0  0  0  0  0  0  0  0  0  0  0  0
  -32.2791   -3.4034   -5.0948 H   0  0  0  0  0  0  0  0  0  0  0  0
  1 30  1  0  0  0  0
  1  8  1  0  0  0  0
  1  2  1  0  0  0  0
  1 32  1  6  0  0  0
  2  3  1  0  0  0  0
  3  6  2  0  0  0  0
  3  4  1  0  0  0  0
  4  5  1  0  0  0  0
  4 33  1  0  0  0  0
  4 34  1  0  0  0  0
  5 35  1  0  0  0  0
  5 36  1  0  0  0  0
  6  7  1  0  0  0  0
  6 37  1  0  0  0  0
  7 30  1  0  0  0  0
  7 38  1  0  0  0  0
  7 39  1  0  0  0  0
  9  8  1  0  0  0  0
  9 28  1  0  0  0  0
  9 10  1  0  0  0  0
  9 40  1  6  0  0  0
 10 12  1  0  0  0  0
 10 11  1  0  0  0  0
 10 41  1  1  0  0  0
 11 42  1  0  0  0  0
 12 25  1  0  0  0  0
 12 13  1  0  0  0  0
 12 43  1  6  0  0  0
 14 13  1  0  0  0  0
 14 23  1  0  0  0  0
 14 15  1  0  0  0  0
 14 44  1  1  0  0  0
 15 16  1  0  0  0  0
 16 17  1  0  0  0  0
 16 45  1  0  0  0  0
 16 46  1  0  0  0  0
 17 19  1  0  0  0  0
 17 18  1  6  0  0  0
 18 47  1  0  0  0  0
 19 48  1  0  0  0  0
 19 49  1  0  0  0  0
 19 50  1  0  0  0  0
 20 17  1  0  0  0  0
 20 23  1  0  0  0  0
 20 21  1  0  0  0  0
 20 51  1  1  0  0  0
 21 22  1  0  0  0  0
 21 52  1  0  0  0  0
 22 53  1  0  0  0  0
 22 54  1  0  0  0  0
 22 55  1  0  0  0  0
 23 24  1  0  0  0  0
 23 56  1  6  0  0  0
 24 57  1  0  0  0  0
 25 27  1  0  0  0  0
 25 26  1  0  0  0  0
 25 58  1  1  0  0  0
 26 59  1  0  0  0  0
 26 60  1  0  0  0  0
 27 28  1  0  0  0  0
 27 61  1  0  0  0  0
 27 62  1  0  0  0  0
 28 29  1  0  0  0  0
 28 63  1  1  0  0  0
 29 64  1  0  0  0  0
 29 65  1  0  0  0  0
 30 31  1  0  0  0  0
 30 66  1  6  0  0  0
 31 67  1  0  0  0  0
 31 68  1  0  0  0  0
M  END
$$$$
