REMARK  6 active torsions:
REMARK  status: ('A' for Active; 'I' for Inactive)
REMARK    1  A    between atoms: C_1  and  O_25 
REMARK    2  A    between atoms: C_3  and  O_31 
REMARK    3  A    between atoms: C_9  and  N_23 
REMARK    4  A    between atoms: C_11  and  O_25 
REMARK    5  A    between atoms: C_13  and  C_16 
REMARK    6  A    between atoms: C_17  and  O_31 
ROOT
ATOM      1  C   UNL d   1     -35.486   2.257  -7.134  0.00  0.00     0.334 C 
ATOM      2  C   UNL d   1     -34.788   2.947  -5.880  0.00  0.00     0.083 C 
ATOM      3  C   UNL d   1     -33.952   1.863  -5.087  0.00  0.00     0.334 C 
ATOM      4  C   UNL d   1     -32.877   1.231  -6.027  0.00  0.00     0.188 C 
ATOM      5  C   UNL d   1     -33.583   0.583  -7.299  0.00  0.00     0.210 C 
ATOM      6  C   UNL d   1     -34.401   1.684  -8.074  0.00  0.00     0.188 C 
ATOM      7  N   UNL d   1     -36.243   3.227  -7.866  0.00  0.00     0.619 N 
ATOM      8  N   UNL d   1     -33.271   2.478  -3.920  0.00  0.00     0.619 N 
ATOM      9  O   UNL d   1     -32.577   0.054  -8.168  0.00  0.00    -0.218 OA
ENDROOT
BRANCH   6  10
ATOM     10  O   UNL d   1     -35.024   1.096  -9.177  0.00  0.00    -0.327 OA
BRANCH  10  11
ATOM     11  C   UNL d   1     -34.928   1.674 -10.490  0.00  0.00     0.269 C 
ATOM     12  C   UNL d   1     -36.252   1.346 -11.217  0.00  0.00     0.232 C 
ATOM     13  O   UNL d   1     -37.331   1.884 -10.485  0.00  0.00    -0.216 OA
ATOM     14  C   UNL d   1     -36.368  -0.236 -11.328  0.00  0.00     0.164 C 
ATOM     15  C   UNL d   1     -35.122  -0.797 -12.179  0.00  0.00     0.177 C 
ATOM     16  C   UNL d   1     -35.075  -2.337 -12.381  0.00  0.00     0.038 C 
ATOM     17  C   UNL d   1     -33.784  -0.396 -11.457  0.00  0.00     0.177 C 
ATOM     18  O   UNL d   1     -35.124  -0.260 -13.491  0.00  0.00    -0.221 OA
ATOM     19  O   UNL d   1     -33.759   1.107 -11.220  0.00  0.00    -0.326 OA
BRANCH  14  20
ATOM     20  N   UNL d   1     -37.642  -0.600 -12.009  0.00  0.00    -0.290 NA
ATOM     21  C   UNL d   1     -38.786  -0.885 -11.119  0.00  0.00     0.146 C 
ENDBRANCH  14  20
ENDBRANCH  10  11
ENDBRANCH   6  10
BRANCH   4  22
ATOM     22  O   UNL d   1     -32.197   0.263  -5.266  0.00  0.00    -0.327 OA
BRANCH  22  23
ATOM     23  C   UNL d   1     -30.990  -0.347  -5.662  0.00  0.00     0.278 C 
ATOM     24  O   UNL d   1     -29.820   0.373  -5.203  0.00  0.00    -0.307 OA
ATOM     25  C   UNL d   1     -29.492   0.332  -3.808  0.00  0.00     0.109 C 
ATOM     26  C   UNL d   1     -29.990  -0.590  -2.958  0.00  0.00    -0.002 C 
ATOM     27  C   UNL d   1     -30.981  -1.698  -3.454  0.00  0.00     0.072 C 
ATOM     28  C   UNL d   1     -31.021  -1.789  -5.032  0.00  0.00     0.362 C 
ATOM     29  N   UNL d   1     -32.237  -2.467  -5.497  0.00  0.00     0.622 N 
BRANCH  25  30
ATOM     30  C   UNL d   1     -28.512   1.437  -3.355  0.00  0.00     0.389 C 
ATOM     31  N   UNL d   1     -29.071   2.732  -3.698  0.00  0.00     0.626 N 
ENDBRANCH  25  30
ENDBRANCH  22  23
ENDBRANCH   4  22
TORSDOF 6
