@<TRIPOS>MOLECULE
ligand.pdb
 10 9 0 0 0
SMALL
GASTEIGER

@<TRIPOS>ATOM
      1 N1         32.7280   15.7690   20.1130 N.3     1  <1>        -0.1199
      2 C1         32.1940   16.7040   21.1460 C.3     1  <1>         0.2050
      3 C2         30.9790   16.0840   21.8300 C.3     1  <1>         0.0881
      4 S1         29.6420   16.0830   20.6760 S.3     1  <1>        -0.1366
      5 C3         28.5270   14.9650   21.4600 C.3     1  <1>         0.0781
      6 C4         27.2230   14.9350   20.6690 C.3     1  <1>         0.1209
      7 N2         27.4390   14.2890   19.3900 N.3     1  <1>        -0.1304
      8 C5         33.2510   17.1090   22.1320 C.2     1  <1>         0.3827
      9 O1         34.4400   17.0870   21.8280 O.co2   1  <1>        -0.2440
     10 O2         32.9900   17.4990   23.2680 O.co2   1  <1>        -0.2440
@<TRIPOS>BOND
     1     2     3    1
     2     2     8    1
     3     2     1    1
     4     3     4    1
     5     4     5    1
     6     5     6    1
     7     6     7    1
     8     8     9   ar
     9     8    10   ar
