ligand.pdb
 OpenBabel03221814163D

 10  9  0  0  1  0  0  0  0  0999 V2000
   32.7280   15.7690   20.1130 N   0  0  0  0  0  0  0  0  0  0  0  0
   32.1940   16.7040   21.1460 C   0  0  1  0  0  0  0  0  0  0  0  0
   30.9790   16.0840   21.8300 C   0  0  0  0  0  0  0  0  0  0  0  0
   29.6420   16.0830   20.6760 S   0  0  0  0  0  0  0  0  0  0  0  0
   28.5270   14.9650   21.4600 C   0  0  0  0  0  0  0  0  0  0  0  0
   27.2230   14.9350   20.6690 C   0  0  0  0  0  0  0  0  0  0  0  0
   27.4390   14.2890   19.3900 N   0  0  0  0  0  0  0  0  0  0  0  0
   33.2510   17.1090   22.1320 C   0  0  0  0  0  0  0  0  0  0  0  0
   34.4400   17.0870   21.8280 O   0  0  0  0  0  0  0  0  0  0  0  0
   32.9900   17.4990   23.2680 O   0  0  0  0  0  0  0  0  0  0  0  0
  2  3  1  0  0  0  0
  2  8  1  0  0  0  0
  2  1  1  6  0  0  0
  3  4  1  0  0  0  0
  4  5  1  0  0  0  0
  5  6  1  0  0  0  0
  6  7  1  0  0  0  0
  8  9  2  0  0  0  0
  8 10  1  0  0  0  0
M  END
>  <HEADER>
RNA                                     20-JUN-08   3DIG

>  <TITLE>
CRYSTAL STRUCTURE OF THE THERMOTOGA MARITIMA LYSINE
2 RIBOSWITCH BOUND TO S-(2-AMINOETHYL)-L-CYSTEINE

>  <COMPND>
MOL_ID: 1;
2 MOLECULE: RNA (174-MER);
3 CHAIN: X;
4 ENGINEERED: YES

>  <SOURCE>
MOL_ID: 1;
2 SYNTHETIC: YES;
3 OTHER_DETAILS: IN VITRO TRANSCRIBED RNA FROM THE LEADER
4 REGION OF THE THERMOTOGA MARITIMA MSB8 ASD GENE.

>  <KEYWDS>
RIBOSWITCH, LYSINE, RNA

>  <EXPDTA>
X-RAY DIFFRACTION

>  <AUTHOR>
A.A.SERGANOV

>  <REVDAT>
3   24-FEB-09 3DIG    1       VERSN
2   11-NOV-08 3DIG    1       JRNL
1   16-SEP-08 3DIG    0

>  <JRNL>
AUTH   A.SERGANOV,L.HUANG,D.J.PATEL
TITL   STRUCTURAL INSIGHTS INTO AMINO ACID BINDING AND
TITL 2 GENE CONTROL BY A LYSINE RIBOSWITCH.
REF    NATURE                        V. 455  1263 2008
REFN                   ISSN 0028-0836
PMID   18784651
DOI    10.1038/NATURE07326

>  <REMARK>
1
2
2 RESOLUTION.    2.80 ANGSTROMS.
3
3 REFINEMENT.
3   PROGRAM     : REFMAC 5.2.0019
3   AUTHORS     : MURSHUDOV,VAGIN,DODSON
3
3    REFINEMENT TARGET : MAXIMUM LIKELIHOOD
3
3  DATA USED IN REFINEMENT.
3   RESOLUTION RANGE HIGH (ANGSTROMS) : 2.80
3   RESOLUTION RANGE LOW  (ANGSTROMS) : 20.00
3   DATA CUTOFF            (SIGMA(F)) : 0.000
3   COMPLETENESS FOR RANGE        (%) : 96.4
3   NUMBER OF REFLECTIONS             : 14399
3
3  FIT TO DATA USED IN REFINEMENT.
3   CROSS-VALIDATION METHOD          : THROUGHOUT
3   FREE R VALUE TEST SET SELECTION  : RANDOM
3   R VALUE     (WORKING + TEST SET) : 0.199
3   R VALUE            (WORKING SET) : 0.197
3   FREE R VALUE                     : 0.225
3   FREE R VALUE TEST SET SIZE   (%) : 5.100
3   FREE R VALUE TEST SET COUNT      : 767
3
3  FIT IN THE HIGHEST RESOLUTION BIN.
3   TOTAL NUMBER OF BINS USED           : 20
3   BIN RESOLUTION RANGE HIGH       (A) : 2.80
3   BIN RESOLUTION RANGE LOW        (A) : 2.87
3   REFLECTION IN BIN     (WORKING SET) : 830
3   BIN COMPLETENESS (WORKING+TEST) (%) : 78.44
3   BIN R VALUE           (WORKING SET) : 0.4670
3   BIN FREE R VALUE SET COUNT          : 54
3   BIN FREE R VALUE                    : 0.4360
3
3  NUMBER OF NON-HYDROGEN ATOMS USED IN REFINEMENT.
3   PROTEIN ATOMS            : 0
3   NUCLEIC ACID ATOMS       : 3752
3   HETEROGEN ATOMS          : 25
3   SOLVENT ATOMS            : 32
3
3  B VALUES.
3   FROM WILSON PLOT           (A**2) : NULL
3   MEAN B VALUE      (OVERALL, A**2) : 23.15
3   OVERALL ANISOTROPIC B VALUE.
3    B11 (A**2) : 0.47000
3    B22 (A**2) : -1.36000
3    B33 (A**2) : 0.89000
3    B12 (A**2) : 0.00000
3    B13 (A**2) : 0.00000
3    B23 (A**2) : 0.00000
3
3  ESTIMATED OVERALL COORDINATE ERROR.
3   ESU BASED ON R VALUE                            (A): NULL
3   ESU BASED ON FREE R VALUE                       (A): 0.334
3   ESU BASED ON MAXIMUM LIKELIHOOD                 (A): 0.274
3   ESU FOR B VALUES BASED ON MAXIMUM LIKELIHOOD (A**2): 31.275
3
3 CORRELATION COEFFICIENTS.
3   CORRELATION COEFFICIENT FO-FC      : 0.944
3   CORRELATION COEFFICIENT FO-FC FREE : 0.919
3
3  RMS DEVIATIONS FROM IDEAL VALUES        COUNT    RMS    WEIGHT
3   BOND LENGTHS REFINED ATOMS        (A):  4212 ; 0.007 ; 0.021
3   BOND LENGTHS OTHERS               (A):  NULL ;  NULL ;  NULL
3   BOND ANGLES REFINED ATOMS   (DEGREES):  6572 ; 1.302 ; 3.000
3   BOND ANGLES OTHERS          (DEGREES):  NULL ;  NULL ;  NULL
3   TORSION ANGLES, PERIOD 1    (DEGREES):  NULL ;  NULL ;  NULL
3   TORSION ANGLES, PERIOD 2    (DEGREES):  NULL ;  NULL ;  NULL
3   TORSION ANGLES, PERIOD 3    (DEGREES):  NULL ;  NULL ;  NULL
3   TORSION ANGLES, PERIOD 4    (DEGREES):  NULL ;  NULL ;  NULL
3   CHIRAL-CENTER RESTRAINTS       (A**3):   871 ; 0.067 ; 0.200
3   GENERAL PLANES REFINED ATOMS      (A):  1838 ; 0.004 ; 0.020
3   GENERAL PLANES OTHERS             (A):  NULL ;  NULL ;  NULL
3   NON-BONDED CONTACTS REFINED ATOMS (A):  1544 ; 0.170 ; 0.200
3   NON-BONDED CONTACTS OTHERS        (A):  NULL ;  NULL ;  NULL
3   NON-BONDED TORSION REFINED ATOMS  (A):  2639 ; 0.268 ; 0.200
3   NON-BONDED TORSION OTHERS         (A):  NULL ;  NULL ;  NULL
3   H-BOND (X...Y) REFINED ATOMS      (A):   120 ; 0.155 ; 0.200
3   H-BOND (X...Y) OTHERS             (A):  NULL ;  NULL ;  NULL
3   POTENTIAL METAL-ION REFINED ATOMS (A):     1 ; 0.045 ; 0.200
3   POTENTIAL METAL-ION OTHERS        (A):  NULL ;  NULL ;  NULL
3   SYMMETRY VDW REFINED ATOMS        (A):    44 ; 0.138 ; 0.200
3   SYMMETRY VDW OTHERS               (A):  NULL ;  NULL ;  NULL
3   SYMMETRY H-BOND REFINED ATOMS     (A):    11 ; 0.163 ; 0.200
3   SYMMETRY H-BOND OTHERS            (A):  NULL ;  NULL ;  NULL
3   SYMMETRY METAL-ION REFINED ATOMS  (A):  NULL ;  NULL ;  NULL
3   SYMMETRY METAL-ION OTHERS         (A):  NULL ;  NULL ;  NULL
3
3  ISOTROPIC THERMAL FACTOR RESTRAINTS.     COUNT   RMS    WEIGHT
3   MAIN-CHAIN BOND REFINED ATOMS  (A**2):     8 ; 0.163 ; 1.500
3   MAIN-CHAIN BOND OTHER ATOMS    (A**2):  NULL ;  NULL ;  NULL
3   MAIN-CHAIN ANGLE REFINED ATOMS (A**2):     9 ; 0.414 ; 2.000
3   SIDE-CHAIN BOND REFINED ATOMS  (A**2):  4446 ; 0.458 ; 3.000
3   SIDE-CHAIN ANGLE REFINED ATOMS (A**2):  6563 ; 0.706 ; 4.500
3
3 ANISOTROPIC THERMAL FACTOR RESTRAINTS.    COUNT   RMS   WEIGHT
3   RIGID-BOND RESTRAINTS          (A**2):  NULL ;  NULL ;  NULL
3   SPHERICITY; FREE ATOMS         (A**2):  NULL ;  NULL ;  NULL
3   SPHERICITY; BONDED ATOMS       (A**2):  NULL ;  NULL ;  NULL
3
3  NCS RESTRAINTS STATISTICS
3   NUMBER OF DIFFERENT NCS GROUPS : NULL
3
3  TLS DETAILS
3   NUMBER OF TLS GROUPS  : 5
3
3   TLS GROUP : 1
3    NUMBER OF COMPONENTS GROUP : 2
3    COMPONENTS        C SSSEQI   TO  C SSSEQI
3    RESIDUE RANGE :   X     1        X    11
3    RESIDUE RANGE :   X   163        X   174
3    ORIGIN FOR THE GROUP (A):  29.4380  -1.6890  18.9480
3    T TENSOR
3      T11:   0.0845 T22:  -0.1749
3      T33:   0.4284 T12:   0.0328
3      T13:  -0.0209 T23:   0.0345
3    L TENSOR
3      L11:   1.0062 L22:   3.8438
3      L33:   3.2691 L12:   0.9894
3      L13:   0.4395 L23:  -1.3055
3    S TENSOR
3      S11:   0.2153 S12:   0.2956 S13:  -0.1488
3      S21:  -0.5027 S22:  -0.0140 S23:   0.1179
3      S31:   0.6391 S32:  -0.3042 S33:  -0.2013
3
3   TLS GROUP : 2
3    NUMBER OF COMPONENTS GROUP : 1
3    COMPONENTS        C SSSEQI   TO  C SSSEQI
3    RESIDUE RANGE :   X    12        X    79
3    ORIGIN FOR THE GROUP (A):   7.0300  47.4380  21.2560
3    T TENSOR
3      T11:   0.2110 T22:  -0.0846
3      T33:   0.6492 T12:   0.1336
3      T13:   0.0105 T23:   0.0543
3    L TENSOR
3      L11:   1.5215 L22:   0.5301
3      L33:   1.4310 L12:  -0.0410
3      L13:   0.4453 L23:   0.3934
3    S TENSOR
3      S11:  -0.2167 S12:   0.2064 S13:   0.6519
3      S21:  -0.1069 S22:  -0.0208 S23:   0.0598
3      S31:  -0.6314 S32:  -0.4159 S33:   0.2375
3
3   TLS GROUP : 3
3    NUMBER OF COMPONENTS GROUP : 1
3    COMPONENTS        C SSSEQI   TO  C SSSEQI
3    RESIDUE RANGE :   X    80        X   113
3    ORIGIN FOR THE GROUP (A):   8.5430  27.3730  11.0990
3    T TENSOR
3      T11:   0.0477 T22:  -0.1124
3      T33:   0.4851 T12:   0.0652
3      T13:  -0.0319 T23:  -0.0053
3    L TENSOR
3      L11:   3.3397 L22:   0.1598
3      L33:   1.4321 L12:  -0.5625
3      L13:   1.3624 L23:  -0.4682
3    S TENSOR
3      S11:   0.1604 S12:   0.4361 S13:   0.0258
3      S21:  -0.2087 S22:  -0.1997 S23:   0.1762
3      S31:  -0.1522 S32:  -0.0954 S33:   0.0393
3
3   TLS GROUP : 4
3    NUMBER OF COMPONENTS GROUP : 1
3    COMPONENTS        C SSSEQI   TO  C SSSEQI
3    RESIDUE RANGE :   X   114        X   140
3    ORIGIN FOR THE GROUP (A):  29.8140  33.9610  15.0290
3    T TENSOR
3      T11:   0.0476 T22:  -0.1802
3      T33:   0.4513 T12:   0.0207
3      T13:  -0.0181 T23:   0.0653
3    L TENSOR
3      L11:   3.7466 L22:   0.9707
3      L33:   0.5226 L12:  -1.2270
3      L13:   0.4748 L23:  -0.0719
3    S TENSOR
3      S11:   0.3171 S12:   0.6567 S13:   0.6394
3      S21:  -0.2451 S22:  -0.4165 S23:  -0.4534
3      S31:  -0.1875 S32:   0.0696 S33:   0.0994
3
3   TLS GROUP : 5
3    NUMBER OF COMPONENTS GROUP : 1
3    COMPONENTS        C SSSEQI   TO  C SSSEQI
3    RESIDUE RANGE :   X   141        X   162
3    ORIGIN FOR THE GROUP (A):  50.4490   8.7730  15.4920
3    T TENSOR
3      T11:  -0.0027 T22:  -0.0830
3      T33:   0.5841 T12:   0.0445
3      T13:   0.0138 T23:   0.0770
3    L TENSOR
3      L11:   9.8112 L22:   4.7337
3      L33:   0.9840 L12:   0.7814
3      L13:  -1.9849 L23:   1.4914
3    S TENSOR
3      S11:  -0.2801 S12:  -0.2904 S13:  -0.7963
3      S21:   0.3946 S22:  -0.1801 S23:  -0.3574
3      S31:   0.3260 S32:   0.3991 S33:   0.4603
3
3  BULK SOLVENT MODELLING.
3   METHOD USED : MASK
3   PARAMETERS FOR MASK CALCULATION
3   VDW PROBE RADIUS   : 1.40
3   ION PROBE RADIUS   : 0.80
3   SHRINKAGE RADIUS   : 0.80
3
3  OTHER REFINEMENT REMARKS: HYDROGENS HAVE BEEN ADDED IN THE
3  RIDING POSITIONS
4
4 3DIG COMPLIES WITH FORMAT V. 3.15, 01-DEC-08
100
100 THIS ENTRY HAS BEEN PROCESSED BY RCSB ON 25-JUN-08.
100 THE RCSB ID CODE IS RCSB048077.
200
200 EXPERIMENTAL DETAILS
200  EXPERIMENT TYPE                : X-RAY DIFFRACTION
200  DATE OF DATA COLLECTION        : 18-MAR-08
200  TEMPERATURE           (KELVIN) : 100
200  PH                             : 5.7
200  NUMBER OF CRYSTALS USED        : 1
200
200  SYNCHROTRON              (Y/N) : Y
200  RADIATION SOURCE               : APS
200  BEAMLINE                       : 24-ID-C
200  X-RAY GENERATOR MODEL          : NULL
200  MONOCHROMATIC OR LAUE    (M/L) : M
200  WAVELENGTH OR RANGE        (A) : 1.8987
200  MONOCHROMATOR                  : NULL
200  OPTICS                         : NULL
200
200  DETECTOR TYPE                  : CCD
200  DETECTOR MANUFACTURER          : ADSC QUANTUM 4
200  INTENSITY-INTEGRATION SOFTWARE : HKL-2000
200  DATA SCALING SOFTWARE          : HKL-2000
200
200  NUMBER OF UNIQUE REFLECTIONS   : 14942
200  RESOLUTION RANGE HIGH      (A) : 2.800
200  RESOLUTION RANGE LOW       (A) : 20.000
200  REJECTION CRITERIA  (SIGMA(I)) : 0.000
200
200 OVERALL.
200  COMPLETENESS FOR RANGE     (%) : 94.4
200  DATA REDUNDANCY                : 5.200
200  R MERGE                    (I) : 0.11200
200  R SYM                      (I) : NULL
200  <I/SIGMA(I)> FOR THE DATA SET  : NULL
200
200 IN THE HIGHEST RESOLUTION SHELL.
200  HIGHEST RESOLUTION SHELL, RANGE HIGH (A) : 2.80
200  HIGHEST RESOLUTION SHELL, RANGE LOW  (A) : 2.90
200  COMPLETENESS FOR SHELL     (%) : 62.8
200  DATA REDUNDANCY IN SHELL       : 3.00
200  R MERGE FOR SHELL          (I) : 0.36000
200  R SYM FOR SHELL            (I) : NULL
200  <I/SIGMA(I)> FOR SHELL         : 2.500
200
200 DIFFRACTION PROTOCOL: SINGLE WAVELENGTH
200 METHOD USED TO DETERMINE THE STRUCTURE: MOLECULAR REPLACEMENT
200 SOFTWARE USED: REFMAC
200 STARTING MODEL: NULL
200
200 REMARK: NULL
280
280 CRYSTAL
280 SOLVENT CONTENT, VS   (%): 54.61
280 MATTHEWS COEFFICIENT, VM (ANGSTROMS**3/DA): 2.71
280
280 CRYSTALLIZATION CONDITIONS: 18% PEG 4000, 0.1M SODIUM CITRATE,
280  20% ISOPROPANOL, PH 5.7, VAPOR DIFFUSION, HANGING DROP,
280  TEMPERATURE 293K
290
290 CRYSTALLOGRAPHIC SYMMETRY
290 SYMMETRY OPERATORS FOR SPACE GROUP: P 21 21 21
290
290      SYMOP   SYMMETRY
290     NNNMMM   OPERATOR
290       1555   X,Y,Z
290       2555   -X+1/2,-Y,Z+1/2
290       3555   -X,Y+1/2,-Z+1/2
290       4555   X+1/2,-Y+1/2,-Z
290
290     WHERE NNN -> OPERATOR NUMBER
290           MMM -> TRANSLATION VECTOR
290
290 CRYSTALLOGRAPHIC SYMMETRY TRANSFORMATIONS
290 THE FOLLOWING TRANSFORMATIONS OPERATE ON THE ATOM/HETATM
290 RECORDS IN THIS ENTRY TO PRODUCE CRYSTALLOGRAPHICALLY
290 RELATED MOLECULES.
290   SMTRY1   1  1.000000  0.000000  0.000000        0.00000
290   SMTRY2   1  0.000000  1.000000  0.000000        0.00000
290   SMTRY3   1  0.000000  0.000000  1.000000        0.00000
290   SMTRY1   2 -1.000000  0.000000  0.000000       27.22050
290   SMTRY2   2  0.000000 -1.000000  0.000000        0.00000
290   SMTRY3   2  0.000000  0.000000  1.000000       71.42750
290   SMTRY1   3 -1.000000  0.000000  0.000000        0.00000
290   SMTRY2   3  0.000000  1.000000  0.000000       39.47050
290   SMTRY3   3  0.000000  0.000000 -1.000000       71.42750
290   SMTRY1   4  1.000000  0.000000  0.000000       27.22050
290   SMTRY2   4  0.000000 -1.000000  0.000000       39.47050
290   SMTRY3   4  0.000000  0.000000 -1.000000        0.00000
290
290 REMARK: NULL
300
300 BIOMOLECULE: 1
300 SEE REMARK 350 FOR THE AUTHOR PROVIDED AND/OR PROGRAM
300 GENERATED ASSEMBLY INFORMATION FOR THE STRUCTURE IN
300 THIS ENTRY. THE REMARK MAY ALSO PROVIDE INFORMATION ON
300 BURIED SURFACE AREA.
350
350 COORDINATES FOR A COMPLETE MULTIMER REPRESENTING THE KNOWN
350 BIOLOGICALLY SIGNIFICANT OLIGOMERIZATION STATE OF THE
350 MOLECULE CAN BE GENERATED BY APPLYING BIOMT TRANSFORMATIONS
350 GIVEN BELOW.  BOTH NON-CRYSTALLOGRAPHIC AND
350 CRYSTALLOGRAPHIC OPERATIONS ARE GIVEN.
350
350 BIOMOLECULE: 1
350 AUTHOR DETERMINED BIOLOGICAL UNIT: MONOMERIC
350 SOFTWARE DETERMINED QUATERNARY STRUCTURE: MONOMERIC
350 SOFTWARE USED: PISA
350 APPLY THE FOLLOWING TO CHAINS: X
350   BIOMT1   1  1.000000  0.000000  0.000000        0.00000
350   BIOMT2   1  0.000000  1.000000  0.000000        0.00000
350   BIOMT3   1  0.000000  0.000000  1.000000        0.00000
500
500 GEOMETRY AND STEREOCHEMISTRY
500 SUBTOPIC: COVALENT BOND LENGTHS
500
500 THE STEREOCHEMICAL PARAMETERS OF THE FOLLOWING RESIDUES
500 HAVE VALUES WHICH DEVIATE FROM EXPECTED VALUES BY MORE
500 THAN 6*RMSD (M=MODEL NUMBER; RES=RESIDUE NAME; C=CHAIN
500 IDENTIFIER; SSEQ=SEQUENCE NUMBER; I=INSERTION CODE).
500
500 STANDARD TABLE:
500 FORMAT: (10X,I3,1X,2(A3,1X,A1,I4,A1,1X,A4,3X),1X,F6.3)
500
500 EXPECTED VALUES PROTEIN: ENGH AND HUBER, 1999
500 EXPECTED VALUES NUCLEIC ACID: CLOWNEY ET AL 1996
500
500  M RES CSSEQI ATM1   RES CSSEQI ATM2   DEVIATION
500      G X   1   P       G X   1   OP3    -0.117
500
500 REMARK: NULL
500
500 GEOMETRY AND STEREOCHEMISTRY
500 SUBTOPIC: COVALENT BOND ANGLES
500
500 THE STEREOCHEMICAL PARAMETERS OF THE FOLLOWING RESIDUES
500 HAVE VALUES WHICH DEVIATE FROM EXPECTED VALUES BY MORE
500 THAN 6*RMSD (M=MODEL NUMBER; RES=RESIDUE NAME; C=CHAIN
500 IDENTIFIER; SSEQ=SEQUENCE NUMBER; I=INSERTION CODE).
500
500 STANDARD TABLE:
500 FORMAT: (10X,I3,1X,A3,1X,A1,I4,A1,3(1X,A4,2X),12X,F5.1)
500
500 EXPECTED VALUES PROTEIN: ENGH AND HUBER, 1999
500 EXPECTED VALUES NUCLEIC ACID: CLOWNEY ET AL 1996
500
500  M RES CSSEQI ATM1   ATM2   ATM3
500      C X   7   O4' -  C1' -  N1  ANGL. DEV. =   4.7 DEGREES
500      G X  12   O4' -  C1' -  N9  ANGL. DEV. =   4.2 DEGREES
500      U X  52   C3' -  O3' -  P   ANGL. DEV. =   8.9 DEGREES
500      C X 102   O4' -  C1' -  N1  ANGL. DEV. =   4.4 DEGREES
500      G X 122   O4' -  C1' -  N9  ANGL. DEV. =   5.0 DEGREES
500      C X 130   O4' -  C1' -  N1  ANGL. DEV. =   4.6 DEGREES
500      U X 153   C1' -  O4' -  C4' ANGL. DEV. =  -6.6 DEGREES
500      U X 153   O4' -  C1' -  N1  ANGL. DEV. =   6.5 DEGREES
500
500 REMARK: NULL
620
620 METAL COORDINATION
620  (M=MODEL NUMBER; RES=RESIDUE NAME; C=CHAIN IDENTIFIER;
620  SSEQ=SEQUENCE NUMBER; I=INSERTION CODE):
620
620 COORDINATION ANGLES FOR:  M RES CSSEQI METAL
620                              NA X 210  NA
620 N RES CSSEQI ATOM
620 1   G X   9   O6
620 2 HOH X 319   O   143.9
620 N                    1
620
620 COORDINATION ANGLES FOR:  M RES CSSEQI METAL
620                              NA X 205  NA
620 N RES CSSEQI ATOM
620 1   G X  11   OP2
620 2   G X  12   O6   72.0
620 N                    1
620
620 COORDINATION ANGLES FOR:  M RES CSSEQI METAL
620                              NA X 201  NA
620 N RES CSSEQI ATOM
620 1   G X  20   O6
620 2   G X  71   O6   69.1
620 3 HOH X 322   O    74.1  52.7
620 N                    1     2
620
620 COORDINATION ANGLES FOR:  M RES CSSEQI METAL
620                              NA X 203  NA
620 N RES CSSEQI ATOM
620 1   G X  69   O6
620 2 HOH X 324   O    62.3
620 N                    1
620
620 COORDINATION ANGLES FOR:  M RES CSSEQI METAL
620                              NA X 212  NA
620 N RES CSSEQI ATOM
620 1   G X 124   N7
620 2   G X 125   O6   93.5
620 N                    1
800
800 SITE
800 SITE_IDENTIFIER: AC2
800 EVIDENCE_CODE: SOFTWARE
800 SITE_DESCRIPTION: BINDING SITE FOR RESIDUE NA X 201
800 SITE_IDENTIFIER: AC3
800 EVIDENCE_CODE: SOFTWARE
800 SITE_DESCRIPTION: BINDING SITE FOR RESIDUE NA X 203
800 SITE_IDENTIFIER: AC5
800 EVIDENCE_CODE: SOFTWARE
800 SITE_DESCRIPTION: BINDING SITE FOR RESIDUE NA X 210
800 SITE_IDENTIFIER: AC7
800 EVIDENCE_CODE: SOFTWARE
800 SITE_DESCRIPTION: BINDING SITE FOR RESIDUE SLZ X 175
900
900 RELATED ENTRIES
900 RELATED ID: 3DIL   RELATED DB: PDB
900 RELATED ID: 3DIM   RELATED DB: PDB
900 RELATED ID: 3DIO   RELATED DB: PDB
900 RELATED ID: 3DIQ   RELATED DB: PDB
900 RELATED ID: 3DIR   RELATED DB: PDB
900 RELATED ID: 3DIS   RELATED DB: PDB
900 RELATED ID: 3DIX   RELATED DB: PDB
900 RELATED ID: 3DIY   RELATED DB: PDB
900 RELATED ID: 3DIZ   RELATED DB: PDB
900 RELATED ID: 3DJ0   RELATED DB: PDB
900 RELATED ID: 3DJ2   RELATED DB: PDB

>  <DBREF>
3DIG X    1   174  PDB    3DIG     3DIG             1    174

>  <SEQRES>
1 X  174    G   G   C   C   G   A   C   G   G   A   G   G   C
2 X  174    G   C   G   C   C   C   G   A   G   A   U   G   A
3 X  174    G   U   A   G   G   C   U   G   U   C   C   C   A
4 X  174    U   C   A   G   G   G   G   A   G   G   A   A   U
5 X  174    C   G   G   G   G   A   C   G   G   C   U   G   A
6 X  174    A   A   G   G   C   G   A   G   G   G   C   G   C
7 X  174    C   G   A   A   G   G   G   U   G   C   A   G   A
8 X  174    G   U   U   C   C   U   C   C   C   G   C   U   C
9 X  174    U   G   C   A   U   G   C   C   U   G   G   G   G
10 X  174    G   U   A   U   G   G   G   G   A   A   U   A   C
11 X  174    C   C   A   U   A   C   C   A   C   U   G   U   C
12 X  174    A   C   G   G   A   G   G   U   C   U   C   U   C
13 X  174    C   G   U   G   G   A   G   A   G   C   C   G   U
14 X  174    C   G   G   U CCC

>  <MODRES>
3DIG CCC X  174    C

>  <HET>
CCC  X 174      23
K  X 200       1
NA  X 201       1
NA  X 202       1
NA  X 203       1
NA  X 204       1
NA  X 205       1
NA  X 206       1
NA  X 207       1
NA  X 208       1
NA  X 209       1
NA  X 210       1
NA  X 211       1
NA  X 212       1
NA  X 213       1
NA  X 214       1
SLZ  X 175      10
IPA  X 290       4

>  <HETNAM>
CCC CYTIDINE-5'-PHOSPHATE-2',3'-CYCLIC PHOSPHATE
K POTASSIUM ION
NA SODIUM ION
SLZ L-THIALYSINE
IPA ISOPROPYL ALCOHOL

>  <HETSYN>
IPA 2-PROPANOL

>  <FORMUL>
1  CCC    C9 H13 N3 O10 P2
2    K    K 1+
3   NA    14(NA 1+)
17  SLZ    C5 H12 N2 O2 S
18  IPA    C3 H8 O
19  HOH   *28(H2 O)

>  <LINK>
O3'   U X 173                 P   CCC X 174     1555   1555  1.60
O6    G X   9                NA    NA X 210     1555   1555  2.77
OP2   G X  11                NA    NA X 205     1555   1555  2.67
O6    G X  12                NA    NA X 205     1555   1555  2.70
O6    G X  20                NA    NA X 201     1555   1555  2.42
O6    G X  69                NA    NA X 203     1555   1555  2.82
O6    G X  71                NA    NA X 201     1555   1555  2.89
N7    G X 124                NA    NA X 212     1555   1555  2.95
O6    G X 125                NA    NA X 212     1555   1555  2.74
K     K X 200                 OXT SLZ X 175     1555   1555  2.80
NA    NA X 201                 O   HOH X 322     1555   1555  2.37
NA    NA X 203                 O   HOH X 324     1555   1555  2.81
NA    NA X 209                 O   HOH X 319     1555   1555  2.64
NA    NA X 210                 O   HOH X 319     1555   1555  2.61

>  <SITE>
1 AC2  1 HOH X 322
1 AC3  1 HOH X 324
1 AC5  1 HOH X 319
1 AC7  1 HOH X 309

>  <ORIGX1>
1.000000  0.000000  0.000000        0.00000

>  <ORIGX2>
0.000000  1.000000  0.000000        0.00000

>  <ORIGX3>
0.000000  0.000000  1.000000        0.00000

>  <SCALE1>
0.018369  0.000000  0.000000        0.00000

>  <SCALE2>
0.000000  0.012668  0.000000        0.00000

>  <SCALE3>
0.000000  0.000000  0.007000        0.00000

$$$$
