REMARK  5 active torsions:
REMARK  status: ('A' for Active; 'I' for Inactive)
REMARK    1  A    between atoms: C_2  and  N_3 
REMARK    2  A    between atoms: C_12  and  C_14 
REMARK    3  A    between atoms: C_14  and  O_15 
REMARK    4  A    between atoms: C_16  and  C_14 
REMARK    5  A    between atoms: C_16  and  O_18 
ROOT
ATOM      1  N   UNL d   1      -8.492   0.914   0.799  0.00  0.00    -0.045 NA
ATOM      2  C   UNL d   1      -8.537   2.203   0.912  0.00  0.00     0.703 A 
ATOM      3  N   UNL d   1      -7.464   3.006   0.702  0.00  0.00    -0.153 N 
ATOM      4  H   UNL d   1      -7.527   4.003   0.831  0.00  0.00     0.187 HD
ATOM      5  C   UNL d   1      -6.228   2.512   0.427  0.00  0.00     0.290 A 
ATOM      6  O   UNL d   1      -5.236   3.228   0.305  0.00  0.00    -0.265 OA
ATOM      7  C   UNL d   1      -6.139   1.031   0.334  0.00  0.00     0.144 A 
ATOM      8  C   UNL d   1      -7.287   0.324   0.525  0.00  0.00     0.175 A 
ATOM      9  N   UNL d   1      -7.213  -1.075   0.490  0.00  0.00    -0.370 N 
ATOM     10  C   UNL d   1      -6.000  -1.741  -0.003  0.00  0.00     0.149 C 
ATOM     11  C   UNL d   1      -4.731  -0.980   0.510  0.00  0.00     0.131 C 
ATOM     12  N   UNL d   1      -4.886   0.435   0.122  0.00  0.00    -0.373 N 
ATOM     13  H   UNL d   1      -8.108  -1.479   0.236  0.00  0.00     0.161 HD
ATOM     14  H   UNL d   1      -4.117   1.081   0.296  0.00  0.00     0.160 HD
ENDROOT
BRANCH  11  15
ATOM     15  C   UNL d   1      -4.588  -1.155   2.049  0.00  0.00     0.170 C 
BRANCH  15  16
ATOM     16  O   UNL d   1      -4.444  -2.557   2.344  0.00  0.00    -0.391 OA
ATOM     17  H   UNL d   1      -5.330  -2.865   2.610  0.00  0.00     0.210 HD
ENDBRANCH  15  16
BRANCH  15  18
ATOM     18  C   UNL d   1      -3.406  -0.369   2.663  0.00  0.00     0.145 C 
ATOM     19  C   UNL d   1      -2.038  -0.894   2.248  0.00  0.00     0.042 C 
BRANCH  18  20
ATOM     20  O   UNL d   1      -3.503  -0.433   4.095  0.00  0.00    -0.393 OA
ATOM     21  H   UNL d   1      -2.713  -0.000   4.464  0.00  0.00     0.210 HD
ENDBRANCH  18  20
ENDBRANCH  15  18
ENDBRANCH  11  15
BRANCH   2  22
ATOM     22  N   UNL d   1      -9.693   2.818   1.255  0.00  0.00    -0.233 N 
ATOM     23  H   UNL d   1     -10.495   2.199   1.205  0.00  0.00     0.174 HD
ATOM     24  H   UNL d   1      -9.864   3.745   0.894  0.00  0.00     0.174 HD
ENDBRANCH   2  22
TORSDOF 5
