@<TRIPOS>MOLECULE
4LVX_H4B_A_101
 32 33 0 0 0
SMALL
GASTEIGER

@<TRIPOS>ATOM
      1 N          -8.4921    0.9136    0.7986 N.ar    1  UNL1       -0.1994
      2 C          -8.5374    2.2027    0.9119 C.ar    1  UNL1        0.1948
      3 N          -9.6925    2.8179    1.2553 N.pl3   1  UNL1       -0.3289
      4 N          -7.4638    3.0065    0.7023 N.ar    1  UNL1       -0.2937
      5 H          -7.5273    4.0030    0.8312 H       1  UNL1        0.1716
      6 C          -6.2280    2.5116    0.4268 C.ar    1  UNL1        0.2755
      7 O          -5.2358    3.2280    0.3050 O.2     1  UNL1       -0.2657
      8 C          -6.1393    1.0308    0.3340 C.ar    1  UNL1        0.1330
      9 C          -7.2867    0.3239    0.5246 C.ar    1  UNL1        0.1487
     10 N          -7.2133   -1.0746    0.4898 N.pl3   1  UNL1       -0.3255
     11 C          -5.9999   -1.7413   -0.0027 C.3     1  UNL1        0.0313
     12 C          -4.7310   -0.9800    0.5098 C.3     1  UNL1        0.0646
     13 H          -3.8582   -1.4058    0.0033 H       1  UNL1        0.0539
     14 N          -4.8865    0.4351    0.1225 N.pl3   1  UNL1       -0.3301
     15 C          -4.5877   -1.1545    2.0489 C.3     1  UNL1        0.1004
     16 H          -5.4963   -0.8170    2.5655 H       1  UNL1        0.0638
     17 O          -4.4438   -2.5572    2.3442 O.3     1  UNL1       -0.3874
     18 C          -3.4062   -0.3691    2.6634 C.3     1  UNL1        0.0801
     19 H          -3.4862    0.6913    2.4024 H       1  UNL1        0.0617
     20 C          -2.0382   -0.8945    2.2485 C.3     1  UNL1       -0.0364
     21 O          -3.5030   -0.4327    4.0954 O.3     1  UNL1       -0.3894
     22 H         -10.4950    2.1990    1.2053 H       1  UNL1        0.1451
     23 H          -9.8642    3.7455    0.8938 H       1  UNL1        0.1451
     24 H          -8.1079   -1.4793    0.2360 H       1  UNL1        0.1476
     25 H          -6.0144   -1.7277   -1.0997 H       1  UNL1        0.0481
     26 H          -5.9969   -2.7895    0.3122 H       1  UNL1        0.0481
     27 H          -4.1175    1.0809    0.2963 H       1  UNL1        0.1467
     28 H          -5.3300   -2.8651    2.6095 H       1  UNL1        0.2100
     29 H          -1.2468   -0.2940    2.7107 H       1  UNL1        0.0255
     30 H          -1.9023   -0.8576    1.1647 H       1  UNL1        0.0255
     31 H          -1.8874   -1.9226    2.5932 H       1  UNL1        0.0255
     32 H          -2.7134   -0.0003    4.4643 H       1  UNL1        0.2099
@<TRIPOS>BOND
     1     1     2   ar
     2     1     9   ar
     3     2     3    1
     4     2     4   ar
     5     3    22    1
     6     3    23    1
     7     4     5    1
     8     4     6   ar
     9     6     7    2
    10     6     8   ar
    11     8     9   ar
    12     8    14    1
    13     9    10    1
    14    10    11    1
    15    10    24    1
    16    11    12    1
    17    11    25    1
    18    11    26    1
    19    12    14    1
    20    12    15    1
    21    12    13    1
    22    14    27    1
    23    15    16    1
    24    15    17    1
    25    17    28    1
    26    18    20    1
    27    18    21    1
    28    18    19    1
    29    18    15    1
    30    20    29    1
    31    20    30    1
    32    20    31    1
    33    21    32    1
