REMARK  Name = 4YB0_C2E_R_102
REMARK  6 active torsions:
REMARK  status: ('A' for Active; 'I' for Inactive)
REMARK    1  A    between atoms: P_1  and  O_3
REMARK    2  A    between atoms: C_9  and  N_45
REMARK    3  A    between atoms: C_11  and  O_44
REMARK    4  A    between atoms: P_16  and  O_18
REMARK    5  A    between atoms: C_24  and  N_32
REMARK    6  A    between atoms: C_26  and  O_31
REMARK                            x       y       z     vdW  Elec       q    Type
REMARK                         _______ _______ _______ _____ _____    ______ ____
ROOT
ATOM      1  P   UNL     1       0.000   0.000   0.000  0.00  0.00    +0.475 P 
ATOM      2  O   UNL     1       0.000   0.000   0.000  0.00  0.00    -0.227 OA
ATOM      3  O   UNL     1       0.000   0.000   0.000  0.00  0.00    -0.278 OA
ATOM      4  C   UNL     1       0.000   0.000   0.000  0.00  0.00    +0.194 C 
ATOM      5  C   UNL     1       0.000   0.000   0.000  0.00  0.00    +0.196 C 
ATOM      6  C   UNL     1       0.000   0.000   0.000  0.00  0.00    +0.253 C 
ATOM      7  O   UNL     1       0.000   0.000   0.000  0.00  0.00    -0.346 OA
ATOM      8  C   UNL     1       0.000   0.000   0.000  0.00  0.00    +0.179 C 
ATOM      9  C   UNL     1       0.000   0.000   0.000  0.00  0.00    +0.206 C 
ATOM     10  O   UNL     1       0.000   0.000   0.000  0.00  0.00    -0.284 OA
ATOM     11  P   UNL     1       0.000   0.000   0.000  0.00  0.00    +0.475 P 
ATOM     12  O   UNL     1       0.000   0.000   0.000  0.00  0.00    -0.227 OA
ATOM     13  O   UNL     1       0.000   0.000   0.000  0.00  0.00    -0.278 OA
ATOM     14  C   UNL     1       0.000   0.000   0.000  0.00  0.00    +0.194 C 
ATOM     15  C   UNL     1       0.000   0.000   0.000  0.00  0.00    +0.196 C 
ATOM     16  C   UNL     1       0.000   0.000   0.000  0.00  0.00    +0.253 C 
ATOM     17  O   UNL     1       0.000   0.000   0.000  0.00  0.00    -0.346 OA
ATOM     18  C   UNL     1       0.000   0.000   0.000  0.00  0.00    +0.179 C 
ATOM     19  C   UNL     1       0.000   0.000   0.000  0.00  0.00    +0.206 C 
ATOM     20  O   UNL     1       0.000   0.000   0.000  0.00  0.00    -0.284 OA
ENDROOT
BRANCH   6  21
ATOM     21  N   UNL     1       0.000   0.000   0.000  0.00  0.00    -0.285 N 
ATOM     22  C   UNL     1       0.000   0.000   0.000  0.00  0.00    +0.171 A 
ATOM     23  N   UNL     1       0.000   0.000   0.000  0.00  0.00    -0.196 NA
ATOM     24  C   UNL     1       0.000   0.000   0.000  0.00  0.00    +0.195 A 
ATOM     25  N   UNL     1       0.000   0.000   0.000  0.00  0.00    -0.329 N 
ATOM     26  H   UNL     1       0.000   0.000   0.000  0.00  0.00    +0.145 HD
ATOM     27  H   UNL     1       0.000   0.000   0.000  0.00  0.00    +0.145 HD
ATOM     28  N   UNL     1       0.000   0.000   0.000  0.00  0.00    -0.293 N 
ATOM     29  H   UNL     1       0.000   0.000   0.000  0.00  0.00    +0.172 HD
ATOM     30  C   UNL     1       0.000   0.000   0.000  0.00  0.00    +0.280 A 
ATOM     31  O   UNL     1       0.000   0.000   0.000  0.00  0.00    -0.265 OA
ATOM     32  C   UNL     1       0.000   0.000   0.000  0.00  0.00    +0.172 A 
ATOM     33  N   UNL     1       0.000   0.000   0.000  0.00  0.00    -0.229 NA
ATOM     34  C   UNL     1       0.000   0.000   0.000  0.00  0.00    +0.203 A 
ENDBRANCH   6  21
BRANCH  16  35
ATOM     35  N   UNL     1       0.000   0.000   0.000  0.00  0.00    -0.285 N 
ATOM     36  C   UNL     1       0.000   0.000   0.000  0.00  0.00    +0.171 A 
ATOM     37  N   UNL     1       0.000   0.000   0.000  0.00  0.00    -0.196 NA
ATOM     38  C   UNL     1       0.000   0.000   0.000  0.00  0.00    +0.195 A 
ATOM     39  N   UNL     1       0.000   0.000   0.000  0.00  0.00    -0.329 N 
ATOM     40  H   UNL     1       0.000   0.000   0.000  0.00  0.00    +0.145 HD
ATOM     41  H   UNL     1       0.000   0.000   0.000  0.00  0.00    +0.145 HD
ATOM     42  N   UNL     1       0.000   0.000   0.000  0.00  0.00    -0.293 N 
ATOM     43  H   UNL     1       0.000   0.000   0.000  0.00  0.00    +0.172 HD
ATOM     44  C   UNL     1       0.000   0.000   0.000  0.00  0.00    +0.280 A 
ATOM     45  O   UNL     1       0.000   0.000   0.000  0.00  0.00    -0.265 OA
ATOM     46  C   UNL     1       0.000   0.000   0.000  0.00  0.00    +0.172 A 
ATOM     47  N   UNL     1       0.000   0.000   0.000  0.00  0.00    -0.229 NA
ATOM     48  C   UNL     1       0.000   0.000   0.000  0.00  0.00    +0.203 A 
ENDBRANCH  16  35
BRANCH   1  49
ATOM     49  O   UNL     1       0.000   0.000   0.000  0.00  0.00    -0.302 OA
ATOM     50  H   UNL     1       0.000   0.000   0.000  0.00  0.00    +0.222 HD
ENDBRANCH   1  49
BRANCH   5  51
ATOM     51  O   UNL     1       0.000   0.000   0.000  0.00  0.00    -0.385 OA
ATOM     52  H   UNL     1       0.000   0.000   0.000  0.00  0.00    +0.210 HD
ENDBRANCH   5  51
BRANCH  11  53
ATOM     53  O   UNL     1       0.000   0.000   0.000  0.00  0.00    -0.302 OA
ATOM     54  H   UNL     1       0.000   0.000   0.000  0.00  0.00    +0.222 HD
ENDBRANCH  11  53
BRANCH  15  55
ATOM     55  O   UNL     1       0.000   0.000   0.000  0.00  0.00    -0.385 OA
ATOM     56  H   UNL     1       0.000   0.000   0.000  0.00  0.00    +0.210 HD
ENDBRANCH  15  55
TORSDOF 6
