@<TRIPOS>MOLECULE
4YB0_C2E_R_102
 70 76 0 0 0
SMALL
GASTEIGER

@<TRIPOS>ATOM
      1 P           0.0000    0.0000   -0.0000 P.3     1  UNL1        0.4754
      2 O          -0.0000   -0.0000   -0.0000 O.2     1  UNL1       -0.2273
      3 O          -0.0000   -0.0000   -0.0000 O.3     1  UNL1       -0.3025
      4 O          -0.0000   -0.0000   -0.0000 O.3     1  UNL1       -0.2840
      5 C          -0.0000   -0.0000   -0.0000 C.3     1  UNL1        0.0879
      6 C          -0.0000   -0.0000   -0.0000 C.3     1  UNL1        0.1142
      7 H          -0.0000   -0.0000   -0.0000 H       1  UNL1        0.0647
      8 O          -0.0000   -0.0000   -0.0000 O.3     1  UNL1       -0.3456
      9 C          -0.0000   -0.0000   -0.0000 C.3     1  UNL1        0.1667
     10 H          -0.0000   -0.0000   -0.0000 H       1  UNL1        0.0866
     11 C          -0.0000   -0.0000   -0.0000 C.3     1  UNL1        0.1294
     12 H          -0.0000   -0.0000   -0.0000 H       1  UNL1        0.0666
     13 C          -0.0000   -0.0000   -0.0000 C.3     1  UNL1        0.1283
     14 H          -0.0000   -0.0000   -0.0000 H       1  UNL1        0.0656
     15 O          -0.0000   -0.0000   -0.0000 O.3     1  UNL1       -0.2779
     16 P          -0.0000   -0.0000   -0.0000 P.3     1  UNL1        0.4754
     17 O          -0.0000   -0.0000   -0.0000 O.2     1  UNL1       -0.2273
     18 O          -0.0000   -0.0000   -0.0000 O.3     1  UNL1       -0.3025
     19 O          -0.0000   -0.0000   -0.0000 O.3     1  UNL1       -0.2840
     20 C          -0.0000   -0.0000    0.0000 C.3     1  UNL1        0.0879
     21 C          -0.0000   -0.0000   -0.0000 C.3     1  UNL1        0.1142
     22 H          -0.0000   -0.0000   -0.0000 H       1  UNL1        0.0647
     23 O          -0.0000   -0.0000   -0.0000 O.3     1  UNL1       -0.3456
     24 C          -0.0000   -0.0000    0.0000 C.3     1  UNL1        0.1667
     25 H          -0.0000   -0.0000   -0.0000 H       1  UNL1        0.0866
     26 C          -0.0000   -0.0000   -0.0000 C.3     1  UNL1        0.1294
     27 H          -0.0000   -0.0000   -0.0000 H       1  UNL1        0.0666
     28 C          -0.0000   -0.0000    0.0000 C.3     1  UNL1        0.1283
     29 H          -0.0000   -0.0000   -0.0000 H       1  UNL1        0.0656
     30 O          -0.0000   -0.0000   -0.0000 O.3     1  UNL1       -0.2779
     31 O          -0.0000   -0.0000   -0.0000 O.3     1  UNL1       -0.3846
     32 N          -0.0000   -0.0000   -0.0000 N.ar    1  UNL1       -0.2854
     33 C          -0.0000   -0.0000   -0.0000 C.ar    1  UNL1        0.1005
     34 N          -0.0000   -0.0000   -0.0000 N.ar    1  UNL1       -0.2286
     35 C          -0.0000   -0.0000    0.0000 C.ar    1  UNL1        0.1721
     36 C          -0.0000   -0.0000   -0.0000 C.ar    1  UNL1        0.2803
     37 O          -0.0000   -0.0000   -0.0000 O.2     1  UNL1       -0.2654
     38 N          -0.0000   -0.0000   -0.0000 N.ar    1  UNL1       -0.2934
     39 H          -0.0000   -0.0000   -0.0000 H       1  UNL1        0.1716
     40 C          -0.0000   -0.0000   -0.0000 C.ar    1  UNL1        0.1950
     41 N          -0.0000   -0.0000   -0.0000 N.pl3   1  UNL1       -0.3289
     42 N          -0.0000   -0.0000   -0.0000 N.ar    1  UNL1       -0.1963
     43 C          -0.0000   -0.0000   -0.0000 C.ar    1  UNL1        0.1712
     44 O          -0.0000   -0.0000   -0.0000 O.3     1  UNL1       -0.3846
     45 N          -0.0000   -0.0000   -0.0000 N.ar    1  UNL1       -0.2854
     46 C          -0.0000   -0.0000   -0.0000 C.ar    1  UNL1        0.1005
     47 N          -0.0000   -0.0000   -0.0000 N.ar    1  UNL1       -0.2286
     48 C          -0.0000   -0.0000   -0.0000 C.ar    1  UNL1        0.1721
     49 C          -0.0000   -0.0000   -0.0000 C.ar    1  UNL1        0.2803
     50 O          -0.0000   -0.0000   -0.0000 O.2     1  UNL1       -0.2654
     51 N          -0.0000   -0.0000   -0.0000 N.ar    1  UNL1       -0.2934
     52 H          -0.0000   -0.0000   -0.0000 H       1  UNL1        0.1716
     53 C          -0.0000   -0.0000   -0.0000 C.ar    1  UNL1        0.1950
     54 N          -0.0000   -0.0000   -0.0000 N.pl3   1  UNL1       -0.3289
     55 N          -0.0000   -0.0000   -0.0000 N.ar    1  UNL1       -0.1963
     56 C          -0.0000   -0.0000   -0.0000 C.ar    1  UNL1        0.1712
     57 H           0.0000    0.0000    0.0000 H       1  UNL1        0.2220
     58 H           0.0000    0.0000    0.0000 H       1  UNL1        0.0592
     59 H           0.0000    0.0000    0.0000 H       1  UNL1        0.0592
     60 H           0.0000    0.0000    0.0000 H       1  UNL1        0.2220
     61 H           0.0000    0.0000    0.0000 H       1  UNL1        0.0592
     62 H           0.0000    0.0000    0.0000 H       1  UNL1        0.0592
     63 H           0.0000    0.0000    0.0000 H       1  UNL1        0.2101
     64 H          -0.0000   -0.0000    0.0000 H       1  UNL1        0.1030
     65 H          -0.0000   -0.0000    0.0000 H       1  UNL1        0.1451
     66 H          -0.0000   -0.0000    0.0000 H       1  UNL1        0.1451
     67 H           0.0000    0.0000    0.0000 H       1  UNL1        0.2101
     68 H          -0.0000   -0.0000    0.0000 H       1  UNL1        0.1030
     69 H          -0.0000   -0.0000    0.0000 H       1  UNL1        0.1451
     70 H          -0.0000   -0.0000    0.0000 H       1  UNL1        0.1451
@<TRIPOS>BOND
     1     1     4    1
     2     1    30    1
     3     1     2    2
     4     1     3    1
     5     3    57    1
     6     4     5    1
     7     5     6    1
     8     5    58    1
     9     5    59    1
    10     6     8    1
    11     6    13    1
    12     6     7    1
    13     8     9    1
    14     9    11    1
    15     9    10    1
    16     9    45    1
    17    11    13    1
    18    11    12    1
    19    11    44    1
    20    13    15    1
    21    13    14    1
    22    16    15    1
    23    16    19    1
    24    16    17    2
    25    16    18    1
    26    18    60    1
    27    19    20    1
    28    20    21    1
    29    20    61    1
    30    20    62    1
    31    21    23    1
    32    21    28    1
    33    21    22    1
    34    23    24    1
    35    24    26    1
    36    24    25    1
    37    24    32    1
    38    26    28    1
    39    26    31    1
    40    26    27    1
    41    28    30    1
    42    28    29    1
    43    31    63    1
    44    32    33   ar
    45    32    43   ar
    46    33    34   ar
    47    33    64    1
    48    34    35   ar
    49    35    36   ar
    50    35    43   ar
    51    36    37    2
    52    36    38   ar
    53    38    39    1
    54    38    40   ar
    55    40    41    1
    56    40    42   ar
    57    41    65    1
    58    41    66    1
    59    42    43   ar
    60    44    67    1
    61    45    46   ar
    62    45    56   ar
    63    46    47   ar
    64    46    68    1
    65    47    48   ar
    66    48    49   ar
    67    48    56   ar
    68    49    50    2
    69    49    51   ar
    70    51    52    1
    71    51    53   ar
    72    53    54    1
    73    53    55   ar
    74    54    69    1
    75    54    70    1
    76    55    56   ar
