@<TRIPOS>MOLECULE
*****
 27 26 0 0 0
SMALL
GASTEIGER
****
Coordinates from PDB:1KOC:B:1 Model:1 without hydrogens
@<TRIPOS>ATOM
      1 N           4.3360    8.1900   30.7620 N.3     1  ARG1       -0.3184
      2 CA          3.8220    6.7980   30.9380 C.3     1  ARG1        0.1033
      3 C           4.5750    6.1280   32.1040 C.2     1  ARG1        0.3217
      4 O           3.9190    5.7230   33.0520 O.2     1  ARG1       -0.2493
      5 CB          4.0310    6.0080   29.6180 C.3     1  ARG1       -0.0245
      6 CG          4.1550    4.5040   29.8890 C.3     1  ARG1       -0.0203
      7 CD          2.8590    3.9860   30.5030 C.3     1  ARG1        0.0646
      8 NE          2.8650    2.4940   30.5170 N.pl3   1  ARG1       -0.2787
      9 CZ          1.8810    1.8340   31.0790 C.cat   1  ARG1        0.3410
     10 NH1         0.6530    2.2830   30.9990 N.pl3   1  ARG1       -0.2919
     11 NH2         2.1250    0.7200   31.7180 N.pl3   1  ARG1       -0.2919
     12 OXT         5.7920    6.0410   32.0360 O.3     1  ARG1       -0.4795
     13 H1          4.2012    8.7141   31.6266 H       1  ARG1        0.1190
     14 H2          3.8278    8.6469   30.0048 H       1  ARG1        0.1190
     15 HA          2.7768    6.8110   31.1666 H       1  ARG1        0.0574
     16 HB1         4.9255    6.3524   29.1424 H       1  ARG1        0.0286
     17 HB2         3.1828    6.1709   28.9863 H       1  ARG1        0.0286
     18 HG1         4.9645    4.3299   30.5667 H       1  ARG1        0.0296
     19 HG2         4.3417    3.9914   28.9685 H       1  ARG1        0.0296
     20 HD1         2.0287    4.3321   29.9236 H       1  ARG1        0.0655
     21 HD2         2.7753    4.3476   31.5066 H       1  ARG1        0.0655
     22 HE          3.6109    2.0029   30.1025 H       1  ARG1        0.2578
     23 HH11        0.4658    3.1216   30.5185 H       1  ARG1        0.2545
     24 HH12       -0.0827    1.7818   31.4194 H       1  ARG1        0.2545
     25 HH21        3.0468    0.3798   31.7800 H       1  ARG1        0.2545
     26 HH22        1.3870    0.2212   32.1373 H       1  ARG1        0.2545
     27 HXT         6.2439    6.3692   31.2836 H       1  ARG1        0.2951
@<TRIPOS>BOND
     1     1     2    1
     2     1    13    1
     3     1    14    1
     4     2     3    1
     5     2     5    1
     6     2    15    1
     7     3     4    2
     8     3    12    1
     9     5     6    1
    10     5    16    1
    11     5    17    1
    12     6     7    1
    13     6    18    1
    14     6    19    1
    15     7     8    1
    16     7    20    1
    17     7    21    1
    18     8     9    1
    19     8    22    1
    20     9    10    1
    21     9    11    2
    22    10    23    1
    23    10    24    1
    24    11    25    1
    25    11    26    1
    26    12    27    1
