
  Mrv1688 03221815483D          
Coordinates from PDB:1KOC:B:1 Model:1 without hydrogens
 27 26  0  0  1  0            999 V2000
    4.3360    8.1900   30.7620 N   0  0  2  0  0  0  0  0  0  0  0  0
    3.8220    6.7980   30.9380 C   0  0  2  0  0  0  0  0  0  0  0  0
    4.5750    6.1280   32.1040 C   0  0  0  0  0  0  0  0  0  0  0  0
    3.9190    5.7230   33.0520 O   0  0  0  0  0  0  0  0  0  0  0  0
    4.0310    6.0080   29.6180 C   0  0  2  0  0  0  0  0  0  0  0  0
    4.1550    4.5040   29.8890 C   0  0  2  0  0  0  0  0  0  0  0  0
    2.8590    3.9860   30.5030 C   0  0  2  0  0  0  0  0  0  0  0  0
    2.8650    2.4940   30.5170 N   0  0  0  0  0  0  0  0  0  0  0  0
    1.8810    1.8340   31.0790 C   0  0  0  0  0  0  0  0  0  0  0  0
    0.6530    2.2830   30.9990 N   0  0  0  0  0  0  0  0  0  0  0  0
    2.1250    0.7200   31.7180 N   0  3  0  0  0  0  0  0  0  0  0  0
    5.7920    6.0410   32.0360 O   0  0  0  0  0  0  0  0  0  0  0  0
    4.2012    8.7141   31.6266 H   0  0  0  0  0  0  0  0  0  0  0  0
    3.8278    8.6469   30.0048 H   0  0  0  0  0  0  0  0  0  0  0  0
    2.7768    6.8110   31.1666 H   0  0  0  0  0  0  0  0  0  0  0  0
    4.9255    6.3524   29.1424 H   0  0  0  0  0  0  0  0  0  0  0  0
    3.1828    6.1709   28.9863 H   0  0  0  0  0  0  0  0  0  0  0  0
    4.9645    4.3299   30.5667 H   0  0  0  0  0  0  0  0  0  0  0  0
    4.3417    3.9914   28.9685 H   0  0  0  0  0  0  0  0  0  0  0  0
    2.0287    4.3321   29.9236 H   0  0  0  0  0  0  0  0  0  0  0  0
    2.7753    4.3476   31.5066 H   0  0  0  0  0  0  0  0  0  0  0  0
    3.6109    2.0029   30.1025 H   0  0  0  0  0  0  0  0  0  0  0  0
    0.4658    3.1216   30.5185 H   0  0  0  0  0  0  0  0  0  0  0  0
   -0.0827    1.7818   31.4194 H   0  0  0  0  0  0  0  0  0  0  0  0
    3.0468    0.3798   31.7800 H   0  0  0  0  0  0  0  0  0  0  0  0
    1.3870    0.2212   32.1373 H   0  0  0  0  0  0  0  0  0  0  0  0
    6.2439    6.3692   31.2836 H   0  0  0  0  0  0  0  0  0  0  0  0
  1  2  1  0  0  0  0
  1 13  1  0  0  0  0
  1 14  1  0  0  0  0
  2  3  1  0  0  0  0
  2  5  1  0  0  0  0
  2 15  1  1  0  0  0
  3  4  2  0  0  0  0
  3 12  1  0  0  0  0
  5  6  1  0  0  0  0
  5 16  1  0  0  0  0
  5 17  1  0  0  0  0
  6  7  1  0  0  0  0
  6 18  1  0  0  0  0
  6 19  1  0  0  0  0
  7  8  1  0  0  0  0
  7 20  1  0  0  0  0
  7 21  1  0  0  0  0
  8  9  1  0  0  0  0
  8 22  1  0  0  0  0
  9 10  1  0  0  0  0
  9 11  2  0  0  0  0
 10 23  1  0  0  0  0
 10 24  1  0  0  0  0
 11 25  1  0  0  0  0
 11 26  1  0  0  0  0
 12 27  1  0  0  0  0
M  CHG  1  11   1
M  END
$$$$
