REMARK  7 active torsions:
REMARK  status: ('A' for Active; 'I' for Inactive)
REMARK    1  A    between atoms: N_1  and  CA_2 
REMARK    2  A    between atoms: CA_2  and  C_3 
REMARK    3  A    between atoms: CA_2  and  CB_5 
REMARK    4  A    between atoms: C_3  and  OXT_12 
REMARK    5  A    between atoms: CB_5  and  CG_6 
REMARK    6  A    between atoms: CG_6  and  CD_7 
REMARK    7  A    between atoms: CD_7  and  NE_8 
REMARK       I    between atoms: NE_8  and  CZ_9 
REMARK       I    between atoms: CZ_9  and  NH1_10 
ROOT
ATOM      1  CG  ARG d   1       4.155   4.504  29.889  0.00  0.00     0.023 C 
ENDROOT
BRANCH   1   2
ATOM      2  CB  ARG d   1       4.031   6.008  29.618  0.00  0.00     0.048 C 
BRANCH   2   3
ATOM      3  CA  ARG d   1       3.822   6.798  30.938  0.00  0.00     0.314 C 
BRANCH   3   4
ATOM      4  N   ARG d   1       4.336   8.190  30.762  0.00  0.00     0.093 N 
ATOM      5  H1  ARG d   1       4.201   8.714  31.627  0.00  0.00     0.314 HD
ATOM      6  H2  ARG d   1       3.828   8.647  30.005  0.00  0.00     0.314 HD
ENDBRANCH   3   4
BRANCH   3   7
ATOM      7  C   ARG d   1       4.575   6.128  32.104  0.00  0.00     0.173 C 
ATOM      8  O   ARG d   1       3.919   5.723  33.052  0.00  0.00    -0.648 OA
BRANCH   7   9
ATOM      9  OXT ARG d   1       5.792   6.041  32.036  0.00  0.00    -0.775 OA
ATOM     10  HXT ARG d   1       6.244   6.369  31.284  0.00  0.00     0.167 HD
ENDBRANCH   7   9
ENDBRANCH   3   7
ENDBRANCH   2   3
ENDBRANCH   1   2
BRANCH   1  11
ATOM     11  CD  ARG d   1       2.859   3.986  30.503  0.00  0.00     0.138 C 
BRANCH  11  12
ATOM     12  NE  ARG d   1       2.865   2.494  30.517  0.00  0.00    -0.227 N 
ATOM     13  CZ  ARG d   1       1.881   1.834  31.079  0.00  0.00     0.665 C 
ATOM     14  NH1 ARG d   1       0.653   2.283  30.999  0.00  0.00    -0.235 N 
ATOM     15  NH2 ARG d   1       2.125   0.720  31.718  0.00  0.00    -0.235 N 
ATOM     16 1HH1 ARG d   1       0.466   3.122  30.518  0.00  0.00     0.174 HD
ATOM     17 2HH1 ARG d   1      -0.083   1.782  31.419  0.00  0.00     0.174 HD
ATOM     18 1HH2 ARG d   1       3.047   0.380  31.780  0.00  0.00     0.174 HD
ATOM     19 2HH2 ARG d   1       1.387   0.221  32.137  0.00  0.00     0.174 HD
ATOM     20  HE  ARG d   1       3.611   2.003  30.102  0.00  0.00     0.177 HD
ENDBRANCH  11  12
ENDBRANCH   1  11
TORSDOF 7
