3S4P_JS6_A_50
 OpenBabel10091713583D
Coordinates from PDB:3S4P:A:50 Model:1 without hydrogens
 53 57  0  0  0  0  0  0  0  0999 V2000
    3.3910    8.7390   42.5200 C   0  0  2  0  0  0  0  0  0  0  0  0
    2.5520    7.6940   42.8550 O   0  0  0  0  0  0  0  0  0  0  0  0
   -0.6660    5.2190   41.1310 C   0  0  2  0  0  0  0  0  0  0  0  0
   -1.8870    4.8570   40.3550 N   0  0  0  0  0  0  0  0  0  0  0  0
    3.9000    5.8970   39.8500 C   0  0  1  0  0  0  0  0  0  0  0  0
    4.5430    8.1310   35.7900 C   0  0  1  0  0  0  0  0  0  0  0  0
    4.6130    3.1380   37.3250 C   0  0  0  0  0  0  0  0  0  0  0  0
    9.1100   -0.0760   39.8620 C   0  0  0  0  0  0  0  0  0  0  0  0
    4.7600    8.5630   43.2890 C   0  0  2  0  0  0  0  0  0  0  0  0
    5.2980    7.2660   42.9090 N   0  0  0  0  0  0  0  0  0  0  0  0
   -1.0490    6.3520   42.2070 C   0  0  0  0  0  0  0  0  0  0  0  0
    3.9300    5.5710   38.3580 C   0  0  2  0  0  0  0  0  0  0  0  0
    4.6850    4.2700   38.2900 O   0  0  0  0  0  0  0  0  0  0  0  0
    4.8980    7.8620   34.1940 C   0  0  2  0  0  0  0  0  0  0  0  0
    6.3780    7.6080   34.0780 N   0  0  0  0  0  0  0  0  0  0  0  0
    5.0740    1.8860   38.0660 C   0  0  0  0  0  0  0  0  0  0  0  0
    6.4830    2.1130   38.5510 N   0  0  0  0  0  0  0  0  0  0  0  0
    9.1730   -0.9790   40.9910 C   0  0  0  0  0  0  0  0  0  0  0  0
    4.4950    8.6900   44.9250 C   0  0  1  0  0  0  0  0  0  0  0  0
    5.8670    8.4680   45.2860 O   0  0  0  0  0  0  0  0  0  0  0  0
    0.2770    6.7850   43.0820 C   0  0  2  0  0  0  0  0  0  0  0  0
   -0.0540    7.7690   44.0360 N   0  0  0  0  0  0  0  0  0  0  0  0
    4.5410    6.9040   37.8840 C   0  0  2  0  0  0  0  0  0  0  0  0
    4.9670    6.9850   36.5400 O   0  0  0  0  0  0  0  0  0  0  0  0
    4.4640    9.1460   33.3680 C   0  0  1  0  0  0  0  0  0  0  0  0
    2.9970    9.2770   33.5350 O   0  0  0  0  0  0  0  0  0  0  0  0
    6.9460    1.2430   39.7590 C   0  0  0  0  0  0  0  0  0  0  0  0
    9.7800   -2.2780   40.8390 C   0  0  0  0  0  0  0  0  0  0  0  0
    3.9050   10.1470   45.2110 C   0  0  2  0  0  0  0  0  0  0  0  0
    3.8420   10.3130   46.2730 O   0  0  0  0  0  0  0  0  0  0  0  0
    1.4340    7.3320   42.0880 C   0  0  2  0  0  0  0  0  0  0  0  0
    5.6650    7.1880   38.9590 C   0  0  2  0  0  0  0  0  0  0  0  0
    5.1680    6.5270   40.1490 O   0  0  0  0  0  0  0  0  0  0  0  0
    5.2580   10.4820   33.9420 C   0  0  2  0  0  0  0  0  0  0  0  0
    6.7260   10.3140   33.7610 O   0  0  0  0  0  0  0  0  0  0  0  0
    8.4610    1.3150   40.0200 C   0  0  0  0  0  0  0  0  0  0  0  0
   10.3260   -2.6800   39.5630 C   0  0  0  0  0  0  0  0  0  0  0  0
    2.5570   10.3300   44.3180 C   0  0  2  0  0  0  0  0  0  0  0  0
    2.8760   10.0840   42.9300 O   0  0  0  0  0  0  0  0  0  0  0  0
    1.7520    6.1680   41.0630 C   0  0  2  0  0  0  0  0  0  0  0  0
    2.7750    6.6990   40.2250 O   0  0  0  0  0  0  0  0  0  0  0  0
    5.8900    8.6390   39.4120 C   0  0  0  0  0  0  0  0  0  0  0  0
    4.7880    9.4770   39.5180 O   0  0  0  0  0  0  0  0  0  0  0  0
    4.8850   10.6760   35.5260 C   0  0  1  0  0  0  0  0  0  0  0  0
    5.2750    9.4050   36.2650 O   0  0  0  0  0  0  0  0  0  0  0  0
   10.2660   -1.7830   38.4350 C   0  0  0  0  0  0  0  0  0  0  0  0
    2.0360   11.7010   44.5510 C   0  0  0  0  0  0  0  0  0  0  0  0
    0.8510   11.8350   43.9300 O   0  0  0  0  0  0  0  0  0  0  0  0
    0.4460    5.7800   40.2210 C   0  0  1  0  0  0  0  0  0  0  0  0
    0.7190    4.7570   39.3550 O   0  0  0  0  0  0  0  0  0  0  0  0
    5.6560   11.9150   36.0510 C   0  0  0  0  0  0  0  0  0  0  0  0
    7.0120   11.5500   36.3130 N   0  0  0  0  0  0  0  0  0  0  0  0
    9.6590   -0.4820   38.5830 C   0  0  0  0  0  0  0  0  0  0  0  0
  1  2  1  1  0  0  0
  1  9  1  0  0  0  0
  1 39  1  0  0  0  0
  3  4  1  6  0  0  0
  3 11  1  0  0  0  0
  3 49  1  0  0  0  0
  5 12  1  0  0  0  0
  5 33  1  0  0  0  0
  5 41  1  6  0  0  0
  6 14  1  0  0  0  0
  6 24  1  1  0  0  0
  6 45  1  0  0  0  0
  7 13  1  0  0  0  0
  7 16  1  0  0  0  0
  8 18  2  0  0  0  0
  8 36  1  0  0  0  0
  8 53  1  0  0  0  0
  9 10  1  1  0  0  0
  9 19  1  0  0  0  0
 11 21  1  0  0  0  0
 12 13  1  1  0  0  0
 12 23  1  0  0  0  0
 14 15  1  1  0  0  0
 14 25  1  0  0  0  0
 16 17  1  0  0  0  0
 17 27  1  0  0  0  0
 18 28  1  0  0  0  0
 19 20  1  1  0  0  0
 19 29  1  0  0  0  0
 21 22  1  1  0  0  0
 21 31  1  0  0  0  0
 23 24  1  6  0  0  0
 23 32  1  0  0  0  0
 25 26  1  1  0  0  0
 25 34  1  0  0  0  0
 27 36  1  0  0  0  0
 28 37  2  0  0  0  0
 29 30  1  1  0  0  0
 29 38  1  0  0  0  0
 31  2  1  1  0  0  0
 31 40  1  0  0  0  0
 32 33  1  0  0  0  0
 32 42  1  1  0  0  0
 34 35  1  1  0  0  0
 34 44  1  0  0  0  0
 37 46  1  0  0  0  0
 38 39  1  0  0  0  0
 38 47  1  6  0  0  0
 40 41  1  6  0  0  0
 40 49  1  0  0  0  0
 42 43  1  0  0  0  0
 44 45  1  0  0  0  0
 44 51  1  1  0  0  0
 46 53  2  0  0  0  0
 47 48  1  0  0  0  0
 49 50  1  6  0  0  0
 51 52  1  0  0  0  0
A    1
C11
A    2
O11
A    3
C12
A    4
N12
A    5
C13
A    6
C14
A    7
C15
A    8
C16
A    9
C21
A   10
N21
A   11
C22
A   12
C23
A   13
O23
A   14
C24
A   15
N24
A   16
C25
A   17
N25
A   18
C26
A   19
C31
A   20
O31
A   21
C32
A   22
N32
A   23
C33
A   24
O33
A   25
C34
A   26
O34
A   27
C35
A   28
C36
A   29
C41
A   30
O41
A   31
C42
A   32
C43
A   33
O43
A   34
C44
A   35
O44
A   36
C45
A   37
C46
A   38
C51
A   39
O51
A   40
C52
A   41
O52
A   42
C53
A   43
O53
A   44
C54
A   45
O54
A   46
C56
A   47
C61
A   48
O61
A   49
C62
A   50
O62
A   51
C64
A   52
N64
A   53
C66
M  END
>  <InstanceId>
3S4P_JS6_A_50

>  <ChemCompId>
JS6

>  <PdbId>
3S4P

>  <ChainId>
A

>  <ResidueNumber>
50

>  <InsertionCode>


>  <Model>
1

>  <AltIds>


>  <MissingHeavyAtoms>
0

>  <ObservedFormula>
C33 N6 O14

>  <Name>
(1R,2R,3S,4R,6S)-4,6-diamino-2-{[3-O-(2,6-diamino-2,6-dideoxy-beta-L-idopyranosyl)-2-O-{2-[(2-phenylethyl)amino]ethyl}-beta-D-ribofuranosyl]oxy}-3-hydroxycyclohexyl 2-amino-2-deoxy-alpha-D-glucopyranoside

>  <SystematicName>
(2S,3S,4R,5R,6R)-2-(aminomethyl)-5-azanyl-6-[(2R,3R,4R,5S)-5-[(1R,2R,3S,5R,6S)-3,5-bis(azanyl)-2-[(2S,3R,4R,5S,6R)-3-azanyl-6-(hydroxymethyl)-4,5-bis(oxidanyl)oxan-2-yl]oxy-6-oxidanyl-cyclohexyl]oxy-2-(hydroxymethyl)-4-[2-(phenethylamino)ethoxy]oxolan-3-yl]oxy-oxane-3,4-diol

>  <Synonyms>


>  <Type>
NON-POLYMER

>  <Formula>
C33 H58 N6 O14

>  <MolecularWeight>
762.845

>  <ModifiedDate>
2011-09-16

>  <Parent>


>  <OneLetterCode>


>  <SubcomponentList>


>  <AmbiguousFlag>
N

>  <InChI>
InChI=1S/C33H58N6O14/c34-11-17-23(43)25(45)20(37)31(48-17)52-28-19(13-41)50-33(30(28)47-9-8-39-7-6-14-4-2-1-3-5-14)53-29-22(42)15(35)10-16(36)27(29)51-32-21(38)26(46)24(44)18(12-40)49-32/h1-5,15-33,39-46H,6-13,34-38H2/t15-,16+,17+,18-,19-,20-,21-,22+,23-,24-,25-,26-,27-,28-,29-,30-,31-,32-,33+/m1/s1

>  <InChIKey>
RYWOYAQAVIFICV-KWRLVFCDSA-N

>  <SMILES>
c1ccc(cc1)CCNCCO[C@@H]2[C@@H]([C@H](O[C@H]2O[C@@H]3[C@H]([C@@H](C[C@@H]([C@H]3O[C@@H]4[C@@H]([C@H]([C@@H]([C@H](O4)CO)O)O)N)N)N)O)CO)O[C@@H]5[C@@H]([C@H]([C@@H]([C@@H](O5)CN)O)O)N

$$$$
