3S4P_JS6_A_50
 OpenBabel10281720503D
Coordinates from PDB:3S4P:A:50 Model:1 without hydrogens
111115  0  0  0  0  0  0  0  0999 V2000
    3.3910    8.7390   42.5200 C   0  0  2  0  0  0  0  0  0  0  0  0
    2.5520    7.6940   42.8550 O   0  0  0  0  0  0  0  0  0  0  0  0
   -0.6660    5.2190   41.1310 C   0  0  2  0  0  0  0  0  0  0  0  0
   -1.8870    4.8570   40.3550 N   0  0  0  0  0  0  0  0  0  0  0  0
    3.9000    5.8970   39.8500 C   0  0  1  0  0  0  0  0  0  0  0  0
    4.5430    8.1310   35.7900 C   0  0  1  0  0  0  0  0  0  0  0  0
    4.6130    3.1380   37.3250 C   0  0  0  0  0  0  0  0  0  0  0  0
    9.1100   -0.0760   39.8620 C   0  0  0  0  0  0  0  0  0  0  0  0
    4.7600    8.5630   43.2890 C   0  0  2  0  0  0  0  0  0  0  0  0
    5.2980    7.2660   42.9090 N   0  0  0  0  0  0  0  0  0  0  0  0
   -1.0490    6.3520   42.2070 C   0  0  0  0  0  0  0  0  0  0  0  0
    3.9300    5.5710   38.3580 C   0  0  2  0  0  0  0  0  0  0  0  0
    4.6850    4.2700   38.2900 O   0  0  0  0  0  0  0  0  0  0  0  0
    4.8980    7.8620   34.1940 C   0  0  2  0  0  0  0  0  0  0  0  0
    6.3780    7.6080   34.0780 N   0  0  0  0  0  0  0  0  0  0  0  0
    5.0740    1.8860   38.0660 C   0  0  0  0  0  0  0  0  0  0  0  0
    6.4830    2.1130   38.5510 N   0  0  0  0  0  0  0  0  0  0  0  0
    9.1730   -0.9790   40.9910 C   0  0  0  0  0  0  0  0  0  0  0  0
    4.4950    8.6900   44.9250 C   0  0  1  0  0  0  0  0  0  0  0  0
    5.8670    8.4680   45.2860 O   0  0  0  0  0  0  0  0  0  0  0  0
    0.2770    6.7850   43.0820 C   0  0  2  0  0  0  0  0  0  0  0  0
   -0.0540    7.7690   44.0360 N   0  0  0  0  0  0  0  0  0  0  0  0
    4.5410    6.9040   37.8840 C   0  0  2  0  0  0  0  0  0  0  0  0
    4.9670    6.9850   36.5400 O   0  0  0  0  0  0  0  0  0  0  0  0
    4.4640    9.1460   33.3680 C   0  0  1  0  0  0  0  0  0  0  0  0
    2.9970    9.2770   33.5350 O   0  0  0  0  0  0  0  0  0  0  0  0
    6.9460    1.2430   39.7590 C   0  0  0  0  0  0  0  0  0  0  0  0
    9.7800   -2.2780   40.8390 C   0  0  0  0  0  0  0  0  0  0  0  0
    3.9050   10.1470   45.2110 C   0  0  2  0  0  0  0  0  0  0  0  0
    3.8420   10.3130   46.2730 O   0  0  0  0  0  0  0  0  0  0  0  0
    1.4340    7.3320   42.0880 C   0  0  2  0  0  0  0  0  0  0  0  0
    5.6650    7.1880   38.9590 C   0  0  2  0  0  0  0  0  0  0  0  0
    5.1680    6.5270   40.1490 O   0  0  0  0  0  0  0  0  0  0  0  0
    5.2580   10.4820   33.9420 C   0  0  2  0  0  0  0  0  0  0  0  0
    6.7260   10.3140   33.7610 O   0  0  0  0  0  0  0  0  0  0  0  0
    8.4610    1.3150   40.0200 C   0  0  0  0  0  0  0  0  0  0  0  0
   10.3260   -2.6800   39.5630 C   0  0  0  0  0  0  0  0  0  0  0  0
    2.5570   10.3300   44.3180 C   0  0  2  0  0  0  0  0  0  0  0  0
    2.8760   10.0840   42.9300 O   0  0  0  0  0  0  0  0  0  0  0  0
    1.7520    6.1680   41.0630 C   0  0  2  0  0  0  0  0  0  0  0  0
    2.7750    6.6990   40.2250 O   0  0  0  0  0  0  0  0  0  0  0  0
    5.8900    8.6390   39.4120 C   0  0  0  0  0  0  0  0  0  0  0  0
    4.7880    9.4770   39.5180 O   0  0  0  0  0  0  0  0  0  0  0  0
    4.8850   10.6760   35.5260 C   0  0  1  0  0  0  0  0  0  0  0  0
    5.2750    9.4050   36.2650 O   0  0  0  0  0  0  0  0  0  0  0  0
   10.2660   -1.7830   38.4350 C   0  0  0  0  0  0  0  0  0  0  0  0
    2.0360   11.7010   44.5510 C   0  0  0  0  0  0  0  0  0  0  0  0
    0.8510   11.8350   43.9300 O   0  0  0  0  0  0  0  0  0  0  0  0
    0.4460    5.7800   40.2210 C   0  0  1  0  0  0  0  0  0  0  0  0
    0.7190    4.7570   39.3550 O   0  0  0  0  0  0  0  0  0  0  0  0
    5.6560   11.9150   36.0510 C   0  0  0  0  0  0  0  0  0  0  0  0
    7.0120   11.5500   36.3130 N   0  0  0  0  0  0  0  0  0  0  0  0
    9.6590   -0.4820   38.5830 C   0  0  0  0  0  0  0  0  0  0  0  0
    3.4812    8.7068   41.4543 H   0  0  0  0  0  0  0  0  0  0  0  0
   -0.3045    4.3310   41.6060 H   0  0  0  0  0  0  0  0  0  0  0  0
   -2.2534    5.6879   39.8905 H   0  0  0  0  0  0  0  0  0  0  0  0
   -2.5934    4.4820   40.9880 H   0  0  0  0  0  0  0  0  0  0  0  0
    3.7746    5.0059   40.4290 H   0  0  0  0  0  0  0  0  0  0  0  0
    3.4925    8.2769   35.9314 H   0  0  0  0  0  0  0  0  0  0  0  0
    5.2541    3.3268   36.4894 H   0  0  0  0  0  0  0  0  0  0  0  0
    3.6165    3.0161   36.9550 H   0  0  0  0  0  0  0  0  0  0  0  0
    5.4685    9.3231   43.0338 H   0  0  0  0  0  0  0  0  0  0  0  0
    4.6274    6.5360   43.1495 H   0  0  0  0  0  0  0  0  0  0  0  0
    6.1728    7.1016   43.4071 H   0  0  0  0  0  0  0  0  0  0  0  0
   -1.7987    5.9709   42.8685 H   0  0  0  0  0  0  0  0  0  0  0  0
   -1.4185    7.2120   41.6886 H   0  0  0  0  0  0  0  0  0  0  0  0
    3.0745    5.3622   37.7502 H   0  0  0  0  0  0  0  0  0  0  0  0
    4.3744    7.0129   33.8071 H   0  0  0  0  0  0  0  0  0  0  0  0
    6.8904    8.4106   34.4437 H   0  0  0  0  0  0  0  0  0  0  0  0
    6.6228    7.4661   33.0980 H   0  0  0  0  0  0  0  0  0  0  0  0
    5.0504    1.0452   37.4047 H   0  0  0  0  0  0  0  0  0  0  0  0
    4.4266    1.6897   38.8950 H   0  0  0  0  0  0  0  0  0  0  0  0
    6.5636    3.0924   38.8243 H   0  0  0  0  0  0  0  0  0  0  0  0
    8.7841   -0.6937   41.9034 H   0  0  0  0  0  0  0  0  0  0  0  0
    3.8023    8.0574   45.4396 H   0  0  0  0  0  0  0  0  0  0  0  0
    6.4354    9.0726   44.7837 H   0  0  0  0  0  0  0  0  0  0  0  0
    0.6403    5.9243   43.6036 H   0  0  0  0  0  0  0  0  0  0  0  0
   -0.4034    8.6005   43.5596 H   0  0  0  0  0  0  0  0  0  0  0  0
    0.7761    8.0108   44.5771 H   0  0  0  0  0  0  0  0  0  0  0  0
    3.7923    7.6672   37.8405 H   0  0  0  0  0  0  0  0  0  0  0  0
    4.7147    9.0552   32.3318 H   0  0  0  0  0  0  0  0  0  0  0  0
    2.7849    9.3583   34.4780 H   0  0  0  0  0  0  0  0  0  0  0  0
    6.6837    0.2243   39.5634 H   0  0  0  0  0  0  0  0  0  0  0  0
    6.4572    1.6268   40.6300 H   0  0  0  0  0  0  0  0  0  0  0  0
    9.8246   -2.9225   41.6438 H   0  0  0  0  0  0  0  0  0  0  0  0
    4.5440   10.9437   44.8918 H   0  0  0  0  0  0  0  0  0  0  0  0
    3.2756    9.6348   46.6732 H   0  0  0  0  0  0  0  0  0  0  0  0
    1.1317    8.2008   41.5415 H   0  0  0  0  0  0  0  0  0  0  0  0
    6.5871    6.8745   38.5159 H   0  0  0  0  0  0  0  0  0  0  0  0
    4.9542   11.3530   33.3999 H   0  0  0  0  0  0  0  0  0  0  0  0
    7.0237    9.5281   34.2454 H   0  0  0  0  0  0  0  0  0  0  0  0
    8.9059    1.9914   39.3204 H   0  0  0  0  0  0  0  0  0  0  0  0
    8.6211    1.6568   41.0212 H   0  0  0  0  0  0  0  0  0  0  0  0
   10.7597   -3.6106   39.4585 H   0  0  0  0  0  0  0  0  0  0  0  0
    1.7955    9.6315   44.5958 H   0  0  0  0  0  0  0  0  0  0  0  0
    2.0628    5.2666   41.5487 H   0  0  0  0  0  0  0  0  0  0  0  0
    6.5626    9.0882   38.7115 H   0  0  0  0  0  0  0  0  0  0  0  0
    6.2483    8.5480   40.4161 H   0  0  0  0  0  0  0  0  0  0  0  0
    4.3993    9.6126   38.6397 H   0  0  0  0  0  0  0  0  0  0  0  0
    3.8388   10.8413   35.6776 H   0  0  0  0  0  0  0  0  0  0  0  0
   10.6563   -2.0709   37.5241 H   0  0  0  0  0  0  0  0  0  0  0  0
    2.7278   12.4179   44.1606 H   0  0  0  0  0  0  0  0  0  0  0  0
    1.9122   11.8649   45.6011 H   0  0  0  0  0  0  0  0  0  0  0  0
    0.9660   11.6860   42.9784 H   0  0  0  0  0  0  0  0  0  0  0  0
    0.1425    6.6771   39.7230 H   0  0  0  0  0  0  0  0  0  0  0  0
    0.9881    3.9717   39.8568 H   0  0  0  0  0  0  0  0  0  0  0  0
    5.1991   12.2647   36.9532 H   0  0  0  0  0  0  0  0  0  0  0  0
    5.6292   12.6922   35.3161 H   0  0  0  0  0  0  0  0  0  0  0  0
    7.0354   10.8091   37.0137 H   0  0  0  0  0  0  0  0  0  0  0  0
    7.5218   12.3624   36.6601 H   0  0  0  0  0  0  0  0  0  0  0  0
    9.6156    0.1607   37.7767 H   0  0  0  0  0  0  0  0  0  0  0  0
  1  2  1  0  0  0  0
  1  9  1  0  0  0  0
  1 39  1  0  0  0  0
  1 54  1  6  0  0  0
  3  4  1  0  0  0  0
  3 11  1  0  0  0  0
  3 49  1  0  0  0  0
  3 55  1  1  0  0  0
  4 56  1  0  0  0  0
  4 57  1  0  0  0  0
  5 12  1  0  0  0  0
  5 33  1  0  0  0  0
  5 41  1  0  0  0  0
  5 58  1  1  0  0  0
  6 14  1  0  0  0  0
  6 24  1  0  0  0  0
  6 45  1  0  0  0  0
  6 59  1  1  0  0  0
  7 13  1  0  0  0  0
  7 16  1  0  0  0  0
  7 60  1  0  0  0  0
  7 61  1  0  0  0  0
  8 18  2  0  0  0  0
  8 36  1  0  0  0  0
  8 53  1  0  0  0  0
  9 10  1  0  0  0  0
  9 19  1  0  0  0  0
  9 62  1  6  0  0  0
 10 63  1  0  0  0  0
 10 64  1  0  0  0  0
 11 21  1  0  0  0  0
 11 65  1  0  0  0  0
 11 66  1  0  0  0  0
 12 13  1  0  0  0  0
 12 23  1  0  0  0  0
 12 67  1  6  0  0  0
 14 15  1  0  0  0  0
 14 25  1  0  0  0  0
 14 68  1  6  0  0  0
 15 69  1  0  0  0  0
 15 70  1  0  0  0  0
 16 17  1  0  0  0  0
 16 71  1  0  0  0  0
 16 72  1  0  0  0  0
 17 27  1  0  0  0  0
 17 73  1  0  0  0  0
 18 28  1  0  0  0  0
 18 74  1  0  0  0  0
 19 20  1  0  0  0  0
 19 29  1  0  0  0  0
 19 75  1  1  0  0  0
 20 76  1  0  0  0  0
 21 22  1  0  0  0  0
 21 31  1  0  0  0  0
 21 77  1  1  0  0  0
 22 78  1  0  0  0  0
 22 79  1  0  0  0  0
 23 24  1  0  0  0  0
 23 32  1  0  0  0  0
 23 80  1  1  0  0  0
 25 26  1  0  0  0  0
 25 34  1  0  0  0  0
 25 81  1  6  0  0  0
 26 82  1  0  0  0  0
 27 36  1  0  0  0  0
 27 83  1  0  0  0  0
 27 84  1  0  0  0  0
 28 37  2  0  0  0  0
 28 85  1  0  0  0  0
 29 30  1  0  0  0  0
 29 38  1  0  0  0  0
 29 86  1  6  0  0  0
 30 87  1  0  0  0  0
 31  2  1  0  0  0  0
 31 40  1  0  0  0  0
 31 88  1  6  0  0  0
 32 33  1  0  0  0  0
 32 42  1  0  0  0  0
 32 89  1  6  0  0  0
 34 35  1  0  0  0  0
 34 44  1  0  0  0  0
 34 90  1  6  0  0  0
 35 91  1  0  0  0  0
 36 92  1  0  0  0  0
 36 93  1  0  0  0  0
 37 46  1  0  0  0  0
 37 94  1  0  0  0  0
 38 39  1  0  0  0  0
 38 47  1  0  0  0  0
 38 95  1  1  0  0  0
 40 41  1  0  0  0  0
 40 49  1  0  0  0  0
 40 96  1  1  0  0  0
 42 43  1  0  0  0  0
 42 97  1  0  0  0  0
 42 98  1  0  0  0  0
 43 99  1  0  0  0  0
 44 45  1  0  0  0  0
 44 51  1  0  0  0  0
 44100  1  1  0  0  0
 46 53  2  0  0  0  0
 46101  1  0  0  0  0
 47 48  1  0  0  0  0
 47102  1  0  0  0  0
 47103  1  0  0  0  0
 48104  1  0  0  0  0
 49 50  1  0  0  0  0
 49105  1  6  0  0  0
 50106  1  0  0  0  0
 51 52  1  0  0  0  0
 51107  1  0  0  0  0
 51108  1  0  0  0  0
 52109  1  0  0  0  0
 52110  1  0  0  0  0
 53111  1  0  0  0  0
A    1
C11
A    2
O11
A    3
C12
A    4
N12
A    5
C13
A    6
C14
A    7
C15
A    8
C16
A    9
C21
A   10
N21
A   11
C22
A   12
C23
A   13
O23
A   14
C24
A   15
N24
A   16
C25
A   17
N25
A   18
C26
A   19
C31
A   20
O31
A   21
C32
A   22
N32
A   23
C33
A   24
O33
A   25
C34
A   26
O34
A   27
C35
A   28
C36
A   29
C41
A   30
O41
A   31
C42
A   32
C43
A   33
O43
A   34
C44
A   35
O44
A   36
C45
A   37
C46
A   38
C51
A   39
O51
A   40
C52
A   41
O52
A   42
C53
A   43
O53
A   44
C54
A   45
O54
A   46
C56
A   47
C61
A   48
O61
A   49
C62
A   50
O62
A   51
C64
A   52
N64
A   53
C66
M  END
>  <InstanceId>
3S4P_JS6_A_50

>  <ChemCompId>
JS6

>  <PdbId>
3S4P

>  <ChainId>
A

>  <ResidueNumber>
50

>  <InsertionCode>


>  <Model>
1

>  <AltIds>


>  <MissingHeavyAtoms>
0

>  <ObservedFormula>
C33 N6 O14

>  <Name>
(1R,2R,3S,4R,6S)-4,6-diamino-2-{[3-O-(2,6-diamino-2,6-dideoxy-beta-L-idopyranosyl)-2-O-{2-[(2-phenylethyl)amino]ethyl}-beta-D-ribofuranosyl]oxy}-3-hydroxycyclohexyl 2-amino-2-deoxy-alpha-D-glucopyranoside

>  <SystematicName>
(2S,3S,4R,5R,6R)-2-(aminomethyl)-5-azanyl-6-[(2R,3R,4R,5S)-5-[(1R,2R,3S,5R,6S)-3,5-bis(azanyl)-2-[(2S,3R,4R,5S,6R)-3-azanyl-6-(hydroxymethyl)-4,5-bis(oxidanyl)oxan-2-yl]oxy-6-oxidanyl-cyclohexyl]oxy-2-(hydroxymethyl)-4-[2-(phenethylamino)ethoxy]oxolan-3-yl]oxy-oxane-3,4-diol

>  <Synonyms>


>  <Type>
NON-POLYMER

>  <Formula>
C33 H58 N6 O14

>  <MolecularWeight>
762.845

>  <ModifiedDate>
2011-09-16

>  <Parent>


>  <OneLetterCode>


>  <SubcomponentList>


>  <AmbiguousFlag>
N

>  <InChI>
InChI=1S/C33H58N6O14/c34-11-17-23(43)25(45)20(37)31(48-17)52-28-19(13-41)50-33(30(28)47-9-8-39-7-6-14-4-2-1-3-5-14)53-29-22(42)15(35)10-16(36)27(29)51-32-21(38)26(46)24(44)18(12-40)49-32/h1-5,15-33,39-46H,6-13,34-38H2/t15-,16+,17+,18-,19-,20-,21-,22+,23-,24-,25-,26-,27-,28-,29-,30-,31-,32-,33+/m1/s1

>  <InChIKey>
RYWOYAQAVIFICV-KWRLVFCDSA-N

>  <SMILES>
c1ccc(cc1)CCNCCO[C@@H]2[C@@H]([C@H](O[C@H]2O[C@@H]3[C@H]([C@@H](C[C@@H]([C@H]3O[C@@H]4[C@@H]([C@H]([C@@H]([C@H](O4)CO)O)O)N)N)N)O)CO)O[C@@H]5[C@@H]([C@H]([C@@H]([C@@H](O5)CN)O)O)N

$$$$
