@<TRIPOS>MOLECULE
3S4P_JS6_A_50
 53 57 0 0 0
SMALL
GASTEIGER
****
Coordinates from PDB:3S4P:A:50 Model:1 without hydrogens
@<TRIPOS>ATOM
      1 C           3.3910    8.7390   42.5200 C.3     1  UNL1        0.2561
      2 O           2.5520    7.6940   42.8550 O.3     1  UNL1       -0.3278
      3 C          -0.6660    5.2190   41.1310 C.3     1  UNL1        0.1261
      4 N          -1.8870    4.8570   40.3550 N.3     1  UNL1       -0.1301
      5 C           3.9000    5.8970   39.8500 C.3     1  UNL1        0.2661
      6 C           4.5430    8.1310   35.7900 C.3     1  UNL1        0.2561
      7 C           4.6130    3.1380   37.3250 C.3     1  UNL1        0.1611
      8 C           9.1100   -0.0760   39.8620 C.ar    1  UNL1       -0.0207
      9 C           4.7600    8.5630   43.2890 C.3     1  UNL1        0.1807
     10 N           5.2980    7.2660   42.9090 N.3     1  UNL1       -0.1248
     11 C          -1.0490    6.3520   42.2070 C.3     1  UNL1        0.0433
     12 C           3.9300    5.5710   38.3580 C.3     1  UNL1        0.2008
     13 O           4.6850    4.2700   38.2900 O.3     1  UNL1       -0.3470
     14 C           4.8980    7.8620   34.1940 C.3     1  UNL1        0.1807
     15 N           6.3780    7.6080   34.0780 N.3     1  UNL1       -0.1248
     16 C           5.0740    1.8860   38.0660 C.3     1  UNL1        0.1207
     17 N           6.4830    2.1130   38.5510 N.3     1  UNL1       -0.2150
     18 C           9.1730   -0.9790   40.9910 C.ar    1  UNL1       -0.0042
     19 C           4.4950    8.6900   44.9250 C.3     1  UNL1        0.2070
     20 O           5.8670    8.4680   45.2860 O.3     1  UNL1       -0.2186
     21 C           0.2770    6.7850   43.0820 C.3     1  UNL1        0.1230
     22 N          -0.0540    7.7690   44.0360 N.3     1  UNL1       -0.1302
     23 C           4.5410    6.9040   37.8840 C.3     1  UNL1        0.1795
     24 O           4.9670    6.9850   36.5400 O.3     1  UNL1       -0.3266
     25 C           4.4640    9.1460   33.3680 C.3     1  UNL1        0.2070
     26 O           2.9970    9.2770   33.5350 O.3     1  UNL1       -0.2186
     27 C           6.9460    1.2430   39.7590 C.3     1  UNL1        0.0935
     28 C           9.7800   -2.2780   40.8390 C.ar    1  UNL1       -0.0003
     29 C           3.9050   10.1470   45.2110 C.3     1  UNL1        0.2133
     30 O           3.8420   10.3130   46.2730 O.3     1  UNL1       -0.2176
     31 C           1.4340    7.3320   42.0880 C.3     1  UNL1        0.1649
     32 C           5.6650    7.1880   38.9590 C.3     1  UNL1        0.1803
     33 O           5.1680    6.5270   40.1490 O.3     1  UNL1       -0.3258
     34 C           5.2580   10.4820   33.9420 C.3     1  UNL1        0.2122
     35 O           6.7260   10.3140   33.7610 O.3     1  UNL1       -0.2177
     36 C           8.4610    1.3150   40.0200 C.3     1  UNL1        0.0451
     37 C          10.3260   -2.6800   39.5630 C.ar    1  UNL1       -0.0000
     38 C           2.5570   10.3300   44.3180 C.3     1  UNL1        0.1834
     39 O           2.8760   10.0840   42.9300 O.3     1  UNL1       -0.3264
     40 C           1.7520    6.1680   41.0630 C.3     1  UNL1        0.1779
     41 O           2.7750    6.6990   40.2250 O.3     1  UNL1       -0.3259
     42 C           5.8900    8.6390   39.4120 C.3     1  UNL1        0.2141
     43 O           4.7880    9.4770   39.5180 O.3     1  UNL1       -0.2176
     44 C           4.8850   10.6760   35.5260 C.3     1  UNL1        0.1696
     45 O           5.2750    9.4050   36.2650 O.3     1  UNL1       -0.3276
     46 C          10.2660   -1.7830   38.4350 C.ar    1  UNL1       -0.0003
     47 C           2.0360   11.7010   44.5510 C.3     1  UNL1        0.2142
     48 O           0.8510   11.8350   43.9300 O.3     1  UNL1       -0.2176
     49 C           0.4460    5.7800   40.2210 C.3     1  UNL1        0.1989
     50 O           0.7190    4.7570   39.3550 O.3     1  UNL1       -0.2189
     51 C           5.6560   11.9150   36.0510 C.3     1  UNL1        0.1415
     52 N           7.0120   11.5500   36.3130 N.3     1  UNL1       -0.1286
     53 C           9.6590   -0.4820   38.5830 C.ar    1  UNL1       -0.0042
@<TRIPOS>BOND
     1     1     2    1
     2     1     9    1
     3     1    39    1
     4     3     4    1
     5     3    11    1
     6     3    49    1
     7     5    12    1
     8     5    33    1
     9     5    41    1
    10     6    14    1
    11     6    24    1
    12     6    45    1
    13     7    13    1
    14     7    16    1
    15     8    18   ar
    16     8    36    1
    17     8    53   ar
    18     9    10    1
    19     9    19    1
    20    11    21    1
    21    12    13    1
    22    12    23    1
    23    14    15    1
    24    14    25    1
    25    16    17    1
    26    17    27    1
    27    18    28   ar
    28    19    20    1
    29    19    29    1
    30    21    22    1
    31    21    31    1
    32    23    24    1
    33    23    32    1
    34    25    26    1
    35    25    34    1
    36    27    36    1
    37    28    37   ar
    38    29    30    1
    39    29    38    1
    40    31     2    1
    41    31    40    1
    42    32    33    1
    43    32    42    1
    44    34    35    1
    45    34    44    1
    46    37    46   ar
    47    38    39    1
    48    38    47    1
    49    40    41    1
    50    40    49    1
    51    42    43    1
    52    44    45    1
    53    44    51    1
    54    46    53   ar
    55    47    48    1
    56    49    50    1
    57    51    52    1
