REMARK  16 active torsions:
REMARK  status: ('A' for Active; 'I' for Inactive)
REMARK    1  A    between atoms: C_1  and  O_2 
REMARK    2  A    between atoms: C_31  and  O_2 
REMARK    3  A    between atoms: C_5  and  O_41 
REMARK    4  A    between atoms: C_6  and  O_24 
REMARK    5  A    between atoms: C_7  and  O_13 
REMARK    6  A    between atoms: C_7  and  C_16 
REMARK    7  A    between atoms: C_8  and  C_36 
REMARK    8  A    between atoms: C_12  and  O_13 
REMARK    9  A    between atoms: C_16  and  N_17 
REMARK   10  A    between atoms: N_17  and  C_27 
REMARK   11  A    between atoms: C_23  and  O_24 
REMARK   12  A    between atoms: C_27  and  C_36 
REMARK   13  A    between atoms: C_32  and  C_42 
REMARK   14  A    between atoms: C_38  and  C_47 
REMARK   15  A    between atoms: C_40  and  O_41 
REMARK   16  A    between atoms: C_44  and  C_51 
ROOT
ATOM      1  C   UNL d   1       3.900   5.897  39.850  0.00  0.00     0.266 C 
ATOM      2  C   UNL d   1       3.930   5.571  38.358  0.00  0.00     0.201 C 
ATOM      3  C   UNL d   1       4.541   6.904  37.884  0.00  0.00     0.180 C 
ATOM      4  C   UNL d   1       5.665   7.188  38.959  0.00  0.00     0.180 C 
ATOM      5  O   UNL d   1       5.168   6.527  40.149  0.00  0.00    -0.326 OA
ENDROOT
BRANCH   1   6
ATOM      6  O   UNL d   1       2.775   6.699  40.225  0.00  0.00    -0.326 OA
BRANCH   6   7
ATOM      7  C   UNL d   1       1.752   6.168  41.063  0.00  0.00     0.179 C 
ATOM      8  C   UNL d   1       1.434   7.332  42.088  0.00  0.00     0.184 C 
ATOM      9  C   UNL d   1       0.277   6.785  43.082  0.00  0.00     0.333 C 
ATOM     10  C   UNL d   1      -1.049   6.352  42.207  0.00  0.00     0.084 C 
ATOM     11  N   UNL d   1      -0.054   7.769  44.036  0.00  0.00     0.619 N 
ATOM     12  C   UNL d   1      -0.666   5.219  41.131  0.00  0.00     0.337 C 
ATOM     13  N   UNL d   1      -1.887   4.857  40.355  0.00  0.00     0.619 N 
ATOM     14  C   UNL d   1       0.446   5.780  40.221  0.00  0.00     0.218 C 
ATOM     15  O   UNL d   1       0.719   4.757  39.355  0.00  0.00    -0.218 OA
BRANCH   8  16
ATOM     16  O   UNL d   1       2.552   7.694  42.855  0.00  0.00    -0.327 OA
BRANCH  16  17
ATOM     17  C   UNL d   1       3.391   8.739  42.520  0.00  0.00     0.277 C 
ATOM     18  C   UNL d   1       4.760   8.563  43.289  0.00  0.00     0.394 C 
ATOM     19  N   UNL d   1       5.298   7.266  42.909  0.00  0.00     0.625 N 
ATOM     20  C   UNL d   1       4.495   8.690  44.925  0.00  0.00     0.253 C 
ATOM     21  O   UNL d   1       5.867   8.468  45.286  0.00  0.00    -0.213 OA
ATOM     22  C   UNL d   1       3.905  10.147  45.211  0.00  0.00     0.213 C 
ATOM     23  O   UNL d   1       3.842  10.313  46.273  0.00  0.00    -0.291 OA
ATOM     24  C   UNL d   1       2.557  10.330  44.318  0.00  0.00     0.210 C 
ATOM     25  O   UNL d   1       2.876  10.084  42.930  0.00  0.00    -0.321 OA
BRANCH  24  26
ATOM     26  C   UNL d   1       2.036  11.701  44.551  0.00  0.00     0.220 C 
ATOM     27  O   UNL d   1       0.851  11.835  43.930  0.00  0.00    -0.217 OA
ENDBRANCH  24  26
ENDBRANCH  16  17
ENDBRANCH   8  16
ENDBRANCH   6   7
ENDBRANCH   1   6
BRANCH   2  28
ATOM     28  O   UNL d   1       4.685   4.270  38.290  0.00  0.00    -0.347 OA
BRANCH  28  29
ATOM     29  C   UNL d   1       4.613   3.138  37.325  0.00  0.00     0.168 C 
BRANCH  29  30
ATOM     30  C   UNL d   1       5.074   1.886  38.066  0.00  0.00     0.152 C 
BRANCH  30  31
ATOM     31  N   UNL d   1       6.483   2.113  38.551  0.00  0.00    -0.292 NA
BRANCH  31  32
ATOM     32  C   UNL d   1       6.946   1.243  39.759  0.00  0.00     0.125 C 
BRANCH  32  33
ATOM     33  C   UNL d   1       8.461   1.315  40.020  0.00  0.00     0.052 C 
BRANCH  33  34
ATOM     34  C   UNL d   1       9.110  -0.076  39.862  0.00  0.00    -0.020 A 
ATOM     35  C   UNL d   1       9.173  -0.979  40.991  0.00  0.00    -0.004 A 
ATOM     36  C   UNL d   1       9.780  -2.278  40.839  0.00  0.00    -0.000 A 
ATOM     37  C   UNL d   1      10.326  -2.680  39.563  0.00  0.00    -0.000 A 
ATOM     38  C   UNL d   1      10.266  -1.783  38.435  0.00  0.00    -0.000 A 
ATOM     39  C   UNL d   1       9.659  -0.482  38.583  0.00  0.00    -0.004 A 
ENDBRANCH  33  34
ENDBRANCH  32  33
ENDBRANCH  31  32
ENDBRANCH  30  31
ENDBRANCH  29  30
ENDBRANCH  28  29
ENDBRANCH   2  28
BRANCH   3  40
ATOM     40  O   UNL d   1       4.967   6.985  36.540  0.00  0.00    -0.327 OA
BRANCH  40  41
ATOM     41  C   UNL d   1       4.543   8.131  35.790  0.00  0.00     0.277 C 
ATOM     42  C   UNL d   1       4.898   7.862  34.194  0.00  0.00     0.390 C 
ATOM     43  N   UNL d   1       6.378   7.608  34.078  0.00  0.00     0.624 N 
ATOM     44  C   UNL d   1       4.464   9.146  33.368  0.00  0.00     0.227 C 
ATOM     45  O   UNL d   1       2.997   9.277  33.535  0.00  0.00    -0.218 OA
ATOM     46  C   UNL d   1       5.258  10.482  33.942  0.00  0.00     0.214 C 
ATOM     47  O   UNL d   1       6.726  10.314  33.761  0.00  0.00    -0.218 OA
ATOM     48  C   UNL d   1       4.885  10.676  35.526  0.00  0.00     0.190 C 
ATOM     49  O   UNL d   1       5.275   9.405  36.265  0.00  0.00    -0.327 OA
BRANCH  48  50
ATOM     50  C   UNL d   1       5.656  11.915  36.051  0.00  0.00     0.370 C 
ATOM     51  N   UNL d   1       7.012  11.550  36.313  0.00  0.00     0.621 N 
ENDBRANCH  48  50
ENDBRANCH  40  41
ENDBRANCH   3  40
BRANCH   4  52
ATOM     52  C   UNL d   1       5.890   8.639  39.412  0.00  0.00     0.214 C 
ATOM     53  O   UNL d   1       4.788   9.477  39.518  0.00  0.00    -0.218 OA
ENDBRANCH   4  52
TORSDOF 16
