@<TRIPOS>MOLECULE
2PWT_LHA_A_51
 125 129 0 0 0
SMALL
GASTEIGER

@<TRIPOS>ATOM
      1 C           6.5022   15.5522    5.0248 C.3     1  UNL1        0.1776
      2 H           5.5769   15.3087    4.4842 H       1  UNL1        0.0927
      3 O           6.5494   14.6819    6.1383 O.3     1  UNL1       -0.3422
      4 C           6.7879   13.3009    5.9851 C.3     1  UNL1        0.1055
      5 H           7.8611   13.2002    6.2077 H       1  UNL1        0.0639
      6 C           6.5336   12.4251    4.6848 C.3     1  UNL1        0.0358
      7 H           5.4688   12.2336    4.5979 H       1  UNL1        0.0485
      8 C           7.2585   11.0617    4.9411 C.3     1  UNL1       -0.0143
      9 C           6.7757   10.3497    6.2314 C.3     1  UNL1        0.0531
     10 H           5.7274   10.0809    6.0618 H       1  UNL1        0.0525
     11 N           7.4464    9.0853    6.4262 N.am    1  UNL1       -0.3077
     12 C           6.6965    7.9214    6.2604 C.2     1  UNL1        0.2420
     13 O           6.4671    7.4315    5.1463 O.2     1  UNL1       -0.2730
     14 C           5.9493    7.4658    7.5095 C.3     1  UNL1        0.1320
     15 H           5.0014    8.0303    7.5439 H       1  UNL1        0.0690
     16 O           5.6499    6.0985    7.2513 O.3     1  UNL1       -0.3825
     17 C           6.5813    7.5477    8.9121 C.3     1  UNL1       -0.0059
     18 C           8.1119    7.6299    9.0133 C.3     1  UNL1       -0.0041
     19 N           8.5316    8.1098   10.3304 N.3     1  UNL1       -0.3299
     20 C           6.8218   11.2845    7.4800 C.3     1  UNL1        0.1022
     21 H           7.8297   11.6051    7.7379 H       1  UNL1        0.0639
     22 C           5.9871   12.4929    7.0666 C.3     1  UNL1        0.1169
     23 H           5.3858   11.9455    6.3849 H       1  UNL1        0.0650
     24 O           4.8865   12.9533    7.9076 O.3     1  UNL1       -0.3402
     25 C           3.7166   12.1892    7.4831 C.3     1  UNL1        0.1887
     26 H           3.9776   11.1394    7.6717 H       1  UNL1        0.0938
     27 O           3.4922   12.4412    6.0739 O.3     1  UNL1       -0.3405
     28 C           2.4365   11.5841    5.6992 C.3     1  UNL1        0.1135
     29 H           2.8170   10.5731    5.8441 H       1  UNL1        0.0647
     30 C           1.3868   11.9711    6.7680 C.3     1  UNL1        0.1208
     31 H           0.8520   12.8556    6.4227 H       1  UNL1        0.0651
     32 C           2.2889   12.3965    8.0072 C.3     1  UNL1        0.1380
     33 H           2.2171   13.4585    8.2874 H       1  UNL1        0.0674
     34 O           2.0272   11.5745    9.1487 O.3     1  UNL1       -0.3676
     35 C           0.8876   12.0315    9.8949 C.3     1  UNL1        0.0608
     36 C           1.2972   12.4050   11.3268 C.3     1  UNL1        0.0194
     37 N           1.0800   11.3293   12.2842 N.3     1  UNL1       -0.3135
     38 C           2.0946   10.2694   12.2086 C.3     1  UNL1       -0.0000
     39 C           1.5318    8.9160   11.7465 C.3     1  UNL1       -0.0151
     40 C           0.3857    8.3753   12.5671 C.ar    1  UNL1       -0.0462
     41 C          -0.8687    8.1496   11.9731 C.ar    1  UNL1       -0.0585
     42 C          -1.9328    7.6577   12.7202 C.ar    1  UNL1       -0.0615
     43 C          -1.7669    7.3814   14.0776 C.ar    1  UNL1       -0.0617
     44 C          -0.5222    7.5943   14.6773 C.ar    1  UNL1       -0.0615
     45 C           0.5443    8.0815   13.9283 C.ar    1  UNL1       -0.0585
     46 O           0.3508   11.0106    7.0458 O.3     1  UNL1       -0.3410
     47 C           0.1153   10.0449    5.9961 C.3     1  UNL1        0.1776
     48 H           0.0415   10.5628    5.0410 H       1  UNL1        0.0927
     49 C          -1.2375    9.3073    6.1118 C.3     1  UNL1        0.0853
     50 H          -1.5631    9.0358    5.1026 H       1  UNL1        0.0535
     51 N          -2.2568   10.1587    6.7112 N.3     1  UNL1       -0.3211
     52 C          -1.0485    8.0129    6.9116 C.3     1  UNL1        0.1033
     53 H          -0.9131    8.2351    7.9797 H       1  UNL1        0.0637
     54 O          -2.2416    7.2250    6.7710 O.3     1  UNL1       -0.3874
     55 C           0.0791    7.1193    6.3810 C.3     1  UNL1        0.1100
     56 H          -0.3327    6.2630    5.8515 H       1  UNL1        0.0646
     57 O           0.7789    6.6199    7.5269 O.3     1  UNL1       -0.3866
     58 C           1.0555    7.8379    5.4713 C.3     1  UNL1        0.1022
     59 H           0.6672    7.9022    4.4390 H       1  UNL1        0.0636
     60 O           1.2218    9.1515    5.9929 O.3     1  UNL1       -0.3425
     61 C           2.4756    7.2688    5.4797 C.3     1  UNL1        0.0222
     62 N           2.5517    5.8334    5.2809 N.3     1  UNL1       -0.3276
     63 C           2.1877   11.8311    4.2118 C.3     1  UNL1        0.0730
     64 O           2.9380   10.9135    3.4044 O.3     1  UNL1       -0.3924
     65 O           6.2325   10.6064    8.5729 O.3     1  UNL1       -0.3873
     66 N           6.8126   12.9489    3.3678 N.3     1  UNL1       -0.3250
     67 C           7.7143   15.6896    4.0893 C.3     1  UNL1        0.0853
     68 H           8.0805   14.7277    3.7468 H       1  UNL1        0.0535
     69 N           8.9026   16.3605    4.6456 N.3     1  UNL1       -0.3211
     70 C           7.2168   16.5136    2.8656 C.3     1  UNL1        0.1033
     71 H           8.0661   16.9633    2.3592 H       1  UNL1        0.0637
     72 O           6.6723   15.6306    1.8652 O.3     1  UNL1       -0.3874
     73 C           6.1540   17.5983    3.1760 C.3     1  UNL1        0.1109
     74 H           5.2473   17.4104    2.5915 H       1  UNL1        0.0646
     75 O           6.6566   18.8411    2.6612 O.3     1  UNL1       -0.3865
     76 C           5.7455   17.7892    4.6501 C.3     1  UNL1        0.1129
     77 H           6.0193   18.8069    4.9703 H       1  UNL1        0.0647
     78 O           6.3894   16.8871    5.5462 O.3     1  UNL1       -0.3415
     79 C           4.2399   17.6465    4.8966 C.3     1  UNL1        0.0730
     80 O           3.9942   17.5750    6.3072 O.3     1  UNL1       -0.3924
     81 H           8.3469   11.1909    5.0152 H       1  UNL1        0.0300
     82 H           7.0794   10.3875    4.0913 H       1  UNL1        0.0300
     83 H           8.4139    9.0469    6.1602 H       1  UNL1        0.1491
     84 H           4.8241    6.0980    6.7382 H       1  UNL1        0.2104
     85 H           6.2652    6.6580    9.4751 H       1  UNL1        0.0307
     86 H           6.1066    8.3685    9.4654 H       1  UNL1        0.0307
     87 H           8.5561    8.3050    8.2857 H       1  UNL1        0.0423
     88 H           8.5442    6.6378    8.8333 H       1  UNL1        0.0423
     89 H           7.9705    8.9188   10.5965 H       1  UNL1        0.1182
     90 H           9.4874    8.4624   10.2666 H       1  UNL1        0.1182
     91 H           0.1390   11.2210    9.8959 H       1  UNL1        0.0573
     92 H           0.4379   12.8957    9.4120 H       1  UNL1        0.0573
     93 H           0.6871   13.2597   11.6494 H       1  UNL1        0.0446
     94 H           2.3382   12.7576   11.3559 H       1  UNL1        0.0446
     95 H           0.1389   10.9518   12.1865 H       1  UNL1        0.1220
     96 H           2.5561   10.1699   13.1970 H       1  UNL1        0.0427
     97 H           2.9096   10.5461   11.5380 H       1  UNL1        0.0427
     98 H           2.3450    8.1767   11.7667 H       1  UNL1        0.0325
     99 H           1.2246    8.9890   10.6946 H       1  UNL1        0.0325
    100 H          -1.0200    8.3581   10.9165 H       1  UNL1        0.0620
    101 H          -2.8989    7.4842   12.2490 H       1  UNL1        0.0618
    102 H          -2.5948    6.9992   14.6621 H       1  UNL1        0.0618
    103 H          -0.3918    7.3751   15.7345 H       1  UNL1        0.0618
    104 H           1.5072    8.2371   14.4124 H       1  UNL1        0.0620
    105 H          -2.9848    9.5836    7.1224 H       1  UNL1        0.1187
    106 H          -2.7306   10.6900    5.9848 H       1  UNL1        0.1187
    107 H          -2.8948    7.5106    7.4233 H       1  UNL1        0.2100
    108 H           0.3264    5.8203    7.8194 H       1  UNL1        0.2100
    109 H           2.9533    7.4836    6.4546 H       1  UNL1        0.0448
    110 H           3.0770    7.7909    4.7264 H       1  UNL1        0.0448
    111 H           1.9433    5.5468    4.5236 H       1  UNL1        0.1183
    112 H           2.2200    5.3473    6.1142 H       1  UNL1        0.1183
    113 H           2.5344   12.8250    3.9263 H       1  UNL1        0.0584
    114 H           1.1354   11.7627    3.9122 H       1  UNL1        0.0584
    115 H           3.8229   10.7951    3.8100 H       1  UNL1        0.2095
    116 H           6.7342   10.7963    9.3762 H       1  UNL1        0.2100
    117 H           5.9930   13.4728    3.0587 H       1  UNL1        0.1185
    118 H           6.8948   12.1882    2.6917 H       1  UNL1        0.1185
    119 H           9.2955   15.8013    5.4132 H       1  UNL1        0.1187
    120 H           9.6394   16.3962    3.9381 H       1  UNL1        0.1187
    121 H           5.8326   15.2923    2.2193 H       1  UNL1        0.2100
    122 H           6.7508   18.7407    1.6975 H       1  UNL1        0.2100
    123 H           3.7028   18.5225    4.5036 H       1  UNL1        0.0584
    124 H           3.8112   16.7444    4.4539 H       1  UNL1        0.0584
    125 H           4.6041   16.9205    6.6939 H       1  UNL1        0.2095
@<TRIPOS>BOND
     1     1    67    1
     2     1    78    1
     3     1     3    1
     4     1     2    1
     5     4     6    1
     6     4     5    1
     7     4     3    1
     8     6     7    1
     9     6     8    1
    10     6    66    1
    11     8     9    1
    12     8    81    1
    13     8    82    1
    14     9    20    1
    15     9    11    1
    16     9    10    1
    17    11    12   am
    18    11    83    1
    19    12    13    2
    20    12    14    1
    21    14    15    1
    22    14    16    1
    23    14    17    1
    24    16    84    1
    25    17    18    1
    26    17    85    1
    27    17    86    1
    28    18    19    1
    29    18    87    1
    30    18    88    1
    31    19    89    1
    32    19    90    1
    33    20    21    1
    34    20    22    1
    35    20    65    1
    36    22     4    1
    37    22    24    1
    38    22    23    1
    39    25    27    1
    40    25    32    1
    41    25    26    1
    42    25    24    1
    43    27    28    1
    44    28    29    1
    45    28    30    1
    46    28    63    1
    47    30    32    1
    48    30    46    1
    49    30    31    1
    50    32    34    1
    51    32    33    1
    52    34    35    1
    53    35    36    1
    54    35    91    1
    55    35    92    1
    56    36    37    1
    57    36    93    1
    58    36    94    1
    59    37    38    1
    60    37    95    1
    61    38    39    1
    62    38    96    1
    63    38    97    1
    64    39    40    1
    65    39    98    1
    66    39    99    1
    67    40    41   ar
    68    40    45   ar
    69    41    42   ar
    70    41   100    1
    71    42    43   ar
    72    42   101    1
    73    43    44   ar
    74    43   102    1
    75    44    45   ar
    76    44   103    1
    77    45   104    1
    78    47    49    1
    79    47    60    1
    80    47    48    1
    81    47    46    1
    82    49    52    1
    83    49    51    1
    84    49    50    1
    85    51   105    1
    86    51   106    1
    87    52    55    1
    88    52    54    1
    89    52    53    1
    90    54   107    1
    91    55    56    1
    92    55    57    1
    93    55    58    1
    94    57   108    1
    95    58    59    1
    96    58    60    1
    97    58    61    1
    98    61    62    1
    99    61   109    1
   100    61   110    1
   101    62   111    1
   102    62   112    1
   103    63    64    1
   104    63   113    1
   105    63   114    1
   106    64   115    1
   107    65   116    1
   108    66   117    1
   109    66   118    1
   110    67    70    1
   111    67    69    1
   112    67    68    1
   113    69   119    1
   114    69   120    1
   115    70    73    1
   116    70    72    1
   117    70    71    1
   118    72   121    1
   119    73    74    1
   120    73    75    1
   121    73    76    1
   122    75   122    1
   123    76    78    1
   124    76    79    1
   125    76    77    1
   126    79    80    1
   127    79   123    1
   128    79   124    1
   129    80   125    1
