2PWT_LHA_A_51
  1228              3D

125129  0  0  0  0  0  0  0  0999 V2000
    6.5022   15.5522    5.0248 C   0  0  0  0  0  0  0  0  0  0  0  0
    5.5769   15.3087    4.4842 H   0  0  0  0  0  0  0  0  0  0  0  0
    6.5494   14.6819    6.1383 O   0  0  0  0  0  0  0  0  0  0  0  0
    6.7879   13.3009    5.9851 C   0  0  0  0  0  0  0  0  0  0  0  0
    7.8611   13.2002    6.2077 H   0  0  0  0  0  0  0  0  0  0  0  0
    6.5336   12.4251    4.6848 C   0  0  0  0  0  0  0  0  0  0  0  0
    5.4688   12.2336    4.5979 H   0  0  0  0  0  0  0  0  0  0  0  0
    7.2585   11.0617    4.9411 C   0  0  0  0  0  0  0  0  0  0  0  0
    6.7757   10.3497    6.2314 C   0  0  0  0  0  0  0  0  0  0  0  0
    5.7274   10.0809    6.0618 H   0  0  0  0  0  0  0  0  0  0  0  0
    7.4464    9.0853    6.4262 N   0  0  0  0  0  0  0  0  0  0  0  0
    6.6965    7.9214    6.2604 C   0  0  0  0  0  0  0  0  0  0  0  0
    6.4671    7.4315    5.1463 O   0  0  0  0  0  0  0  0  0  0  0  0
    5.9493    7.4658    7.5095 C   0  0  0  0  0  0  0  0  0  0  0  0
    5.0014    8.0303    7.5439 H   0  0  0  0  0  0  0  0  0  0  0  0
    5.6499    6.0985    7.2513 O   0  0  0  0  0  0  0  0  0  0  0  0
    6.5813    7.5477    8.9121 C   0  0  0  0  0  0  0  0  0  0  0  0
    8.1119    7.6299    9.0133 C   0  0  0  0  0  0  0  0  0  0  0  0
    8.5316    8.1098   10.3304 N   0  0  0  0  0  0  0  0  0  0  0  0
    6.8218   11.2845    7.4800 C   0  0  0  0  0  0  0  0  0  0  0  0
    7.8297   11.6051    7.7379 H   0  0  0  0  0  0  0  0  0  0  0  0
    5.9871   12.4929    7.0666 C   0  0  0  0  0  0  0  0  0  0  0  0
    5.3858   11.9455    6.3849 H   0  0  0  0  0  0  0  0  0  0  0  0
    4.8865   12.9533    7.9076 O   0  0  0  0  0  0  0  0  0  0  0  0
    3.7166   12.1892    7.4831 C   0  0  0  0  0  0  0  0  0  0  0  0
    3.9776   11.1394    7.6717 H   0  0  0  0  0  0  0  0  0  0  0  0
    3.4922   12.4412    6.0739 O   0  0  0  0  0  0  0  0  0  0  0  0
    2.4365   11.5841    5.6992 C   0  0  0  0  0  0  0  0  0  0  0  0
    2.8170   10.5731    5.8441 H   0  0  0  0  0  0  0  0  0  0  0  0
    1.3868   11.9711    6.7680 C   0  0  0  0  0  0  0  0  0  0  0  0
    0.8520   12.8556    6.4227 H   0  0  0  0  0  0  0  0  0  0  0  0
    2.2889   12.3965    8.0072 C   0  0  0  0  0  0  0  0  0  0  0  0
    2.2171   13.4585    8.2874 H   0  0  0  0  0  0  0  0  0  0  0  0
    2.0272   11.5745    9.1487 O   0  0  0  0  0  0  0  0  0  0  0  0
    0.8876   12.0315    9.8949 C   0  0  0  0  0  0  0  0  0  0  0  0
    1.2972   12.4050   11.3268 C   0  0  0  0  0  0  0  0  0  0  0  0
    1.0800   11.3293   12.2842 N   0  0  0  0  0  0  0  0  0  0  0  0
    2.0946   10.2694   12.2086 C   0  0  0  0  0  0  0  0  0  0  0  0
    1.5318    8.9160   11.7465 C   0  0  0  0  0  0  0  0  0  0  0  0
    0.3857    8.3753   12.5671 C   0  0  0  0  0  0  0  0  0  0  0  0
   -0.8687    8.1496   11.9731 C   0  0  0  0  0  0  0  0  0  0  0  0
   -1.9328    7.6577   12.7202 C   0  0  0  0  0  0  0  0  0  0  0  0
   -1.7669    7.3814   14.0776 C   0  0  0  0  0  0  0  0  0  0  0  0
   -0.5222    7.5943   14.6773 C   0  0  0  0  0  0  0  0  0  0  0  0
    0.5443    8.0815   13.9283 C   0  0  0  0  0  0  0  0  0  0  0  0
    0.3508   11.0106    7.0458 O   0  0  0  0  0  0  0  0  0  0  0  0
    0.1153   10.0449    5.9961 C   0  0  0  0  0  0  0  0  0  0  0  0
    0.0415   10.5628    5.0410 H   0  0  0  0  0  0  0  0  0  0  0  0
   -1.2375    9.3073    6.1118 C   0  0  0  0  0  0  0  0  0  0  0  0
   -1.5631    9.0358    5.1026 H   0  0  0  0  0  0  0  0  0  0  0  0
   -2.2568   10.1587    6.7112 N   0  0  0  0  0  0  0  0  0  0  0  0
   -1.0485    8.0129    6.9116 C   0  0  0  0  0  0  0  0  0  0  0  0
   -0.9131    8.2351    7.9797 H   0  0  0  0  0  0  0  0  0  0  0  0
   -2.2416    7.2250    6.7710 O   0  0  0  0  0  0  0  0  0  0  0  0
    0.0791    7.1193    6.3810 C   0  0  0  0  0  0  0  0  0  0  0  0
   -0.3327    6.2630    5.8515 H   0  0  0  0  0  0  0  0  0  0  0  0
    0.7789    6.6199    7.5269 O   0  0  0  0  0  0  0  0  0  0  0  0
    1.0555    7.8379    5.4713 C   0  0  0  0  0  0  0  0  0  0  0  0
    0.6672    7.9022    4.4390 H   0  0  0  0  0  0  0  0  0  0  0  0
    1.2218    9.1515    5.9929 O   0  0  0  0  0  0  0  0  0  0  0  0
    2.4756    7.2688    5.4797 C   0  0  0  0  0  0  0  0  0  0  0  0
    2.5517    5.8334    5.2809 N   0  0  0  0  0  0  0  0  0  0  0  0
    2.1877   11.8311    4.2118 C   0  0  0  0  0  0  0  0  0  0  0  0
    2.9380   10.9135    3.4044 O   0  0  0  0  0  0  0  0  0  0  0  0
    6.2325   10.6064    8.5729 O   0  0  0  0  0  0  0  0  0  0  0  0
    6.8126   12.9489    3.3678 N   0  0  0  0  0  0  0  0  0  0  0  0
    7.7143   15.6896    4.0893 C   0  0  0  0  0  0  0  0  0  0  0  0
    8.0805   14.7277    3.7468 H   0  0  0  0  0  0  0  0  0  0  0  0
    8.9026   16.3605    4.6456 N   0  0  0  0  0  0  0  0  0  0  0  0
    7.2168   16.5136    2.8656 C   0  0  0  0  0  0  0  0  0  0  0  0
    8.0661   16.9633    2.3592 H   0  0  0  0  0  0  0  0  0  0  0  0
    6.6723   15.6306    1.8652 O   0  0  0  0  0  0  0  0  0  0  0  0
    6.1540   17.5983    3.1760 C   0  0  0  0  0  0  0  0  0  0  0  0
    5.2473   17.4104    2.5915 H   0  0  0  0  0  0  0  0  0  0  0  0
    6.6566   18.8411    2.6612 O   0  0  0  0  0  0  0  0  0  0  0  0
    5.7455   17.7892    4.6501 C   0  0  0  0  0  0  0  0  0  0  0  0
    6.0193   18.8069    4.9703 H   0  0  0  0  0  0  0  0  0  0  0  0
    6.3894   16.8871    5.5462 O   0  0  0  0  0  0  0  0  0  0  0  0
    4.2399   17.6465    4.8966 C   0  0  0  0  0  0  0  0  0  0  0  0
    3.9942   17.5750    6.3072 O   0  0  0  0  0  0  0  0  0  0  0  0
    8.3469   11.1909    5.0152 H   0  0  0  0  0  0  0  0  0  0  0  0
    7.0794   10.3875    4.0913 H   0  0  0  0  0  0  0  0  0  0  0  0
    8.4139    9.0469    6.1602 H   0  0  0  0  0  0  0  0  0  0  0  0
    4.8241    6.0980    6.7382 H   0  0  0  0  0  0  0  0  0  0  0  0
    6.2652    6.6580    9.4751 H   0  0  0  0  0  0  0  0  0  0  0  0
    6.1066    8.3685    9.4654 H   0  0  0  0  0  0  0  0  0  0  0  0
    8.5561    8.3050    8.2857 H   0  0  0  0  0  0  0  0  0  0  0  0
    8.5442    6.6378    8.8333 H   0  0  0  0  0  0  0  0  0  0  0  0
    7.9705    8.9188   10.5965 H   0  0  0  0  0  0  0  0  0  0  0  0
    9.4874    8.4624   10.2666 H   0  0  0  0  0  0  0  0  0  0  0  0
    0.1390   11.2210    9.8959 H   0  0  0  0  0  0  0  0  0  0  0  0
    0.4379   12.8957    9.4120 H   0  0  0  0  0  0  0  0  0  0  0  0
    0.6871   13.2597   11.6494 H   0  0  0  0  0  0  0  0  0  0  0  0
    2.3382   12.7576   11.3559 H   0  0  0  0  0  0  0  0  0  0  0  0
    0.1389   10.9518   12.1865 H   0  0  0  0  0  0  0  0  0  0  0  0
    2.5561   10.1699   13.1970 H   0  0  0  0  0  0  0  0  0  0  0  0
    2.9096   10.5461   11.5380 H   0  0  0  0  0  0  0  0  0  0  0  0
    2.3450    8.1767   11.7667 H   0  0  0  0  0  0  0  0  0  0  0  0
    1.2246    8.9890   10.6946 H   0  0  0  0  0  0  0  0  0  0  0  0
   -1.0200    8.3581   10.9165 H   0  0  0  0  0  0  0  0  0  0  0  0
   -2.8989    7.4842   12.2490 H   0  0  0  0  0  0  0  0  0  0  0  0
   -2.5948    6.9992   14.6621 H   0  0  0  0  0  0  0  0  0  0  0  0
   -0.3918    7.3751   15.7345 H   0  0  0  0  0  0  0  0  0  0  0  0
    1.5072    8.2371   14.4124 H   0  0  0  0  0  0  0  0  0  0  0  0
   -2.9848    9.5836    7.1224 H   0  0  0  0  0  0  0  0  0  0  0  0
   -2.7306   10.6900    5.9848 H   0  0  0  0  0  0  0  0  0  0  0  0
   -2.8948    7.5106    7.4233 H   0  0  0  0  0  0  0  0  0  0  0  0
    0.3264    5.8203    7.8194 H   0  0  0  0  0  0  0  0  0  0  0  0
    2.9533    7.4836    6.4546 H   0  0  0  0  0  0  0  0  0  0  0  0
    3.0770    7.7909    4.7264 H   0  0  0  0  0  0  0  0  0  0  0  0
    1.9433    5.5468    4.5236 H   0  0  0  0  0  0  0  0  0  0  0  0
    2.2200    5.3473    6.1142 H   0  0  0  0  0  0  0  0  0  0  0  0
    2.5344   12.8250    3.9263 H   0  0  0  0  0  0  0  0  0  0  0  0
    1.1354   11.7627    3.9122 H   0  0  0  0  0  0  0  0  0  0  0  0
    3.8229   10.7951    3.8100 H   0  0  0  0  0  0  0  0  0  0  0  0
    6.7342   10.7963    9.3762 H   0  0  0  0  0  0  0  0  0  0  0  0
    5.9930   13.4728    3.0587 H   0  0  0  0  0  0  0  0  0  0  0  0
    6.8948   12.1882    2.6917 H   0  0  0  0  0  0  0  0  0  0  0  0
    9.2955   15.8013    5.4132 H   0  0  0  0  0  0  0  0  0  0  0  0
    9.6394   16.3962    3.9381 H   0  0  0  0  0  0  0  0  0  0  0  0
    5.8326   15.2923    2.2193 H   0  0  0  0  0  0  0  0  0  0  0  0
    6.7508   18.7407    1.6975 H   0  0  0  0  0  0  0  0  0  0  0  0
    3.7028   18.5225    4.5036 H   0  0  0  0  0  0  0  0  0  0  0  0
    3.8112   16.7444    4.4539 H   0  0  0  0  0  0  0  0  0  0  0  0
    4.6041   16.9205    6.6939 H   0  0  0  0  0  0  0  0  0  0  0  0
  1 67  1  0  0  0  0
  1 78  1  0  0  0  0
  1  3  1  0  0  0  0
  1  2  1  0  0  0  0
  4  6  1  0  0  0  0
  4  5  1  0  0  0  0
  4  3  1  0  0  0  0
  6  7  1  0  0  0  0
  6  8  1  0  0  0  0
  6 66  1  0  0  0  0
  8  9  1  0  0  0  0
  8 81  1  0  0  0  0
  8 82  1  0  0  0  0
  9 20  1  0  0  0  0
  9 11  1  0  0  0  0
  9 10  1  0  0  0  0
 11 12  1  0  0  0  0
 11 83  1  0  0  0  0
 12 13  2  0  0  0  0
 12 14  1  0  0  0  0
 14 15  1  0  0  0  0
 14 16  1  0  0  0  0
 14 17  1  0  0  0  0
 16 84  1  0  0  0  0
 17 18  1  0  0  0  0
 17 85  1  0  0  0  0
 17 86  1  0  0  0  0
 18 19  1  0  0  0  0
 18 87  1  0  0  0  0
 18 88  1  0  0  0  0
 19 89  1  0  0  0  0
 19 90  1  0  0  0  0
 20 21  1  0  0  0  0
 20 22  1  0  0  0  0
 20 65  1  0  0  0  0
 22  4  1  0  0  0  0
 22 24  1  0  0  0  0
 22 23  1  0  0  0  0
 25 27  1  0  0  0  0
 25 32  1  0  0  0  0
 25 26  1  0  0  0  0
 25 24  1  0  0  0  0
 27 28  1  0  0  0  0
 28 29  1  0  0  0  0
 28 30  1  0  0  0  0
 28 63  1  0  0  0  0
 30 32  1  0  0  0  0
 30 46  1  0  0  0  0
 30 31  1  0  0  0  0
 32 34  1  0  0  0  0
 32 33  1  0  0  0  0
 34 35  1  0  0  0  0
 35 36  1  0  0  0  0
 35 91  1  0  0  0  0
 35 92  1  0  0  0  0
 36 37  1  0  0  0  0
 36 93  1  0  0  0  0
 36 94  1  0  0  0  0
 37 38  1  0  0  0  0
 37 95  1  0  0  0  0
 38 39  1  0  0  0  0
 38 96  1  0  0  0  0
 38 97  1  0  0  0  0
 39 40  1  0  0  0  0
 39 98  1  0  0  0  0
 39 99  1  0  0  0  0
 40 41  2  0  0  0  0
 40 45  1  0  0  0  0
 41 42  1  0  0  0  0
 41100  1  0  0  0  0
 42 43  2  0  0  0  0
 42101  1  0  0  0  0
 43 44  1  0  0  0  0
 43102  1  0  0  0  0
 44 45  2  0  0  0  0
 44103  1  0  0  0  0
 45104  1  0  0  0  0
 47 49  1  0  0  0  0
 47 60  1  0  0  0  0
 47 48  1  0  0  0  0
 47 46  1  0  0  0  0
 49 52  1  0  0  0  0
 49 51  1  0  0  0  0
 49 50  1  0  0  0  0
 51105  1  0  0  0  0
 51106  1  0  0  0  0
 52 55  1  0  0  0  0
 52 54  1  0  0  0  0
 52 53  1  0  0  0  0
 54107  1  0  0  0  0
 55 56  1  0  0  0  0
 55 57  1  0  0  0  0
 55 58  1  0  0  0  0
 57108  1  0  0  0  0
 58 59  1  0  0  0  0
 58 60  1  0  0  0  0
 58 61  1  0  0  0  0
 61 62  1  0  0  0  0
 61109  1  0  0  0  0
 61110  1  0  0  0  0
 62111  1  0  0  0  0
 62112  1  0  0  0  0
 63 64  1  0  0  0  0
 63113  1  0  0  0  0
 63114  1  0  0  0  0
 64115  1  0  0  0  0
 65116  1  0  0  0  0
 66117  1  0  0  0  0
 66118  1  0  0  0  0
 67 70  1  0  0  0  0
 67 69  1  0  0  0  0
 67 68  1  0  0  0  0
 69119  1  0  0  0  0
 69120  1  0  0  0  0
 70 73  1  0  0  0  0
 70 72  1  0  0  0  0
 70 71  1  0  0  0  0
 72121  1  0  0  0  0
 73 74  1  0  0  0  0
 73 75  1  0  0  0  0
 73 76  1  0  0  0  0
 75122  1  0  0  0  0
 76 78  1  0  0  0  0
 76 79  1  0  0  0  0
 76 77  1  0  0  0  0
 79 80  1  0  0  0  0
 79123  1  0  0  0  0
 79124  1  0  0  0  0
 80125  1  0  0  0  0
M  END
>  <energy>
324.27690133679516

$$$$
