REMARK WARNING: 32 MAX_TORS EXCEEDED!!!
REMARK  33 active torsions:
REMARK  status: ('A' for Active; 'I' for Inactive)
REMARK    1  A    between atoms: C_1  and  O_2 
REMARK    2  A    between atoms: C_3  and  O_2 
REMARK    3  A    between atoms: C_4  and  N_50 
REMARK    4  A    between atoms: C_6  and  N_7 
REMARK       I    between atoms: N_7  and  C_8 
REMARK    5  A    between atoms: C_8  and  C_10 
REMARK    6  A    between atoms: C_10  and  O_11 
REMARK    7  A    between atoms: C_10  and  C_12 
REMARK    8  A    between atoms: C_12  and  C_13 
REMARK    9  A    between atoms: C_13  and  N_14 
REMARK   10  A    between atoms: C_15  and  O_49 
REMARK   11  A    between atoms: C_16  and  O_17 
REMARK   12  A    between atoms: C_18  and  O_17 
REMARK   13  A    between atoms: C_20  and  C_47 
REMARK   14  A    between atoms: C_21  and  O_35 
REMARK   15  A    between atoms: C_22  and  O_23 
REMARK   16  A    between atoms: O_23  and  C_24 
REMARK   17  A    between atoms: C_24  and  C_25 
REMARK   18  A    between atoms: C_25  and  N_26 
REMARK   19  A    between atoms: N_26  and  C_27 
REMARK   20  A    between atoms: C_27  and  C_28 
REMARK   21  A    between atoms: C_28  and  C_29 
REMARK   22  A    between atoms: C_36  and  O_35 
REMARK   23  A    between atoms: C_37  and  N_38 
REMARK   24  A    between atoms: C_39  and  O_40 
REMARK   25  A    between atoms: C_41  and  O_42 
REMARK   26  A    between atoms: C_43  and  C_45 
REMARK   27  A    between atoms: C_45  and  N_46 
REMARK   28  A    between atoms: C_47  and  O_48 
REMARK   29  A    between atoms: C_51  and  N_52 
REMARK   30  A    between atoms: C_53  and  O_54 
REMARK   31  A    between atoms: C_55  and  O_56 
REMARK   32  A    between atoms: C_57  and  C_59 
REMARK   33  A    between atoms: C_59  and  O_60 
ROOT
ATOM      1  C   UNL d   1       6.788  13.301   5.985  0.00  0.00     0.189 C 
ATOM      2  C   UNL d   1       6.534  12.425   4.685  0.00  0.00     0.251 C 
ATOM      3  C   UNL d   1       7.258  11.062   4.941  0.00  0.00     0.066 C 
ATOM      4  C   UNL d   1       6.776  10.350   6.231  0.00  0.00     0.118 C 
ATOM      5  C   UNL d   1       6.822  11.284   7.480  0.00  0.00     0.172 C 
ATOM      6  C   UNL d   1       5.987  12.493   7.067  0.00  0.00     0.186 C 
ENDROOT
BRANCH   6   7
ATOM      7  O   UNL d   1       4.886  12.953   7.908  0.00  0.00    -0.348 OA
BRANCH   7   8
ATOM      8  C   UNL d   1       3.717  12.189   7.483  0.00  0.00     0.292 C 
ATOM      9  O   UNL d   1       3.492  12.441   6.074  0.00  0.00    -0.348 OA
ATOM     10  C   UNL d   1       2.437  11.584   5.699  0.00  0.00     0.180 C 
ATOM     11  C   UNL d   1       1.387  11.971   6.768  0.00  0.00     0.189 C 
ATOM     12  C   UNL d   1       2.289  12.396   8.007  0.00  0.00     0.208 C 
BRANCH  10  13
ATOM     13  C   UNL d   1       2.188  11.831   4.212  0.00  0.00     0.198 C 
BRANCH  13  14
ATOM     14  O   UNL d   1       2.938  10.914   3.404  0.00  0.00    -0.398 OA
ATOM     15  H   UNL d   1       3.823  10.795   3.810  0.00  0.00     0.209 HD
ENDBRANCH  13  14
ENDBRANCH  10  13
BRANCH  11  16
ATOM     16  O   UNL d   1       0.351  11.011   7.046  0.00  0.00    -0.348 OA
BRANCH  16  17
ATOM     17  C   UNL d   1       0.115  10.045   5.996  0.00  0.00     0.296 C 
ATOM     18  C   UNL d   1      -1.238   9.307   6.112  0.00  0.00     0.303 C 
ATOM     19  C   UNL d   1      -1.048   8.013   6.912  0.00  0.00     0.187 C 
ATOM     20  C   UNL d   1       0.079   7.119   6.381  0.00  0.00     0.179 C 
ATOM     21  C   UNL d   1       1.056   7.838   5.471  0.00  0.00     0.183 C 
ATOM     22  O   UNL d   1       1.222   9.152   5.993  0.00  0.00    -0.349 OA
BRANCH  18  23
ATOM     23  N   UNL d   1      -2.257  10.159   6.711  0.00  0.00     0.090 N 
ATOM     24  H   UNL d   1      -2.985   9.584   7.122  0.00  0.00     0.313 HD
ATOM     25  H   UNL d   1      -2.731  10.690   5.985  0.00  0.00     0.313 HD
ENDBRANCH  18  23
BRANCH  19  26
ATOM     26  O   UNL d   1      -2.242   7.225   6.771  0.00  0.00    -0.391 OA
ATOM     27  H   UNL d   1      -2.895   7.511   7.423  0.00  0.00     0.210 HD
ENDBRANCH  19  26
BRANCH  20  28
ATOM     28  O   UNL d   1       0.779   6.620   7.527  0.00  0.00    -0.390 OA
ATOM     29  H   UNL d   1       0.326   5.820   7.819  0.00  0.00     0.210 HD
ENDBRANCH  20  28
BRANCH  21  30
ATOM     30  C   UNL d   1       2.476   7.269   5.480  0.00  0.00     0.301 C 
BRANCH  30  31
ATOM     31  N   UNL d   1       2.552   5.833   5.281  0.00  0.00     0.080 N 
ATOM     32  H   UNL d   1       1.943   5.547   4.524  0.00  0.00     0.312 HD
ATOM     33  H   UNL d   1       2.220   5.347   6.114  0.00  0.00     0.312 HD
ENDBRANCH  30  31
ENDBRANCH  21  30
ENDBRANCH  16  17
ENDBRANCH  11  16
BRANCH  12  34
ATOM     34  O   UNL d   1       2.027  11.575   9.149  0.00  0.00    -0.377 OA
BRANCH  34  35
ATOM     35  C   UNL d   1       0.888  12.031   9.895  0.00  0.00     0.198 C 
BRANCH  35  36
ATOM     36  C   UNL d   1       1.297  12.405  11.327  0.00  0.00     0.295 C 
BRANCH  36  37
ATOM     37  N   UNL d   1       1.080  11.329  12.284  0.00  0.00     0.085 N 
ATOM     38  H   UNL d   1       0.139  10.952  12.187  0.00  0.00     0.315 HD
BRANCH  37  39
ATOM     39  C   UNL d   1       2.095  10.269  12.209  0.00  0.00     0.274 C 
BRANCH  39  40
ATOM     40  C   UNL d   1       1.532   8.916  11.746  0.00  0.00     0.068 C 
BRANCH  40  41
ATOM     41  C   UNL d   1       0.386   8.375  12.567  0.00  0.00    -0.057 A 
ATOM     42  C   UNL d   1      -0.869   8.150  11.973  0.00  0.00     0.007 A 
ATOM     43  C   UNL d   1      -1.933   7.658  12.720  0.00  0.00     0.001 A 
ATOM     44  C   UNL d   1      -1.767   7.381  14.078  0.00  0.00     0.000 A 
ATOM     45  C   UNL d   1      -0.522   7.594  14.677  0.00  0.00     0.001 A 
ATOM     46  C   UNL d   1       0.544   8.082  13.928  0.00  0.00     0.007 A 
ENDBRANCH  40  41
ENDBRANCH  39  40
ENDBRANCH  37  39
ENDBRANCH  36  37
ENDBRANCH  35  36
ENDBRANCH  34  35
ENDBRANCH  12  34
ENDBRANCH   7   8
ENDBRANCH   6   7
BRANCH   5  47
ATOM     47  O   UNL d   1       6.232  10.606   8.573  0.00  0.00    -0.391 OA
ATOM     48  H   UNL d   1       6.734  10.796   9.376  0.00  0.00     0.210 HD
ENDBRANCH   5  47
BRANCH   1  49
ATOM     49  O   UNL d   1       6.549  14.682   6.138  0.00  0.00    -0.349 OA
BRANCH  49  50
ATOM     50  C   UNL d   1       6.502  15.552   5.025  0.00  0.00     0.296 C 
ATOM     51  C   UNL d   1       7.714  15.690   4.089  0.00  0.00     0.303 C 
ATOM     52  C   UNL d   1       7.217  16.514   2.866  0.00  0.00     0.187 C 
ATOM     53  C   UNL d   1       6.154  17.598   3.176  0.00  0.00     0.180 C 
ATOM     54  C   UNL d   1       5.745  17.789   4.650  0.00  0.00     0.179 C 
ATOM     55  O   UNL d   1       6.389  16.887   5.546  0.00  0.00    -0.349 OA
BRANCH  51  56
ATOM     56  N   UNL d   1       8.903  16.360   4.646  0.00  0.00     0.090 N 
ATOM     57  H   UNL d   1       9.296  15.801   5.413  0.00  0.00     0.313 HD
ATOM     58  H   UNL d   1       9.639  16.396   3.938  0.00  0.00     0.313 HD
ENDBRANCH  51  56
BRANCH  52  59
ATOM     59  O   UNL d   1       6.672  15.631   1.865  0.00  0.00    -0.391 OA
ATOM     60  H   UNL d   1       5.833  15.292   2.219  0.00  0.00     0.210 HD
ENDBRANCH  52  59
BRANCH  53  61
ATOM     61  O   UNL d   1       6.657  18.841   2.661  0.00  0.00    -0.390 OA
ATOM     62  H   UNL d   1       6.751  18.741   1.698  0.00  0.00     0.210 HD
ENDBRANCH  53  61
BRANCH  54  63
ATOM     63  C   UNL d   1       4.240  17.646   4.897  0.00  0.00     0.198 C 
BRANCH  63  64
ATOM     64  O   UNL d   1       3.994  17.575   6.307  0.00  0.00    -0.398 OA
ATOM     65  H   UNL d   1       4.604  16.921   6.694  0.00  0.00     0.209 HD
ENDBRANCH  63  64
ENDBRANCH  54  63
ENDBRANCH  49  50
ENDBRANCH   1  49
BRANCH   4  66
ATOM     66  N   UNL d   1       7.446   9.085   6.426  0.00  0.00    -0.352 N 
ATOM     67  C   UNL d   1       6.697   7.921   6.260  0.00  0.00     0.246 C 
ATOM     68  O   UNL d   1       6.467   7.431   5.146  0.00  0.00    -0.271 OA
ATOM     69  H   UNL d   1       8.414   9.047   6.160  0.00  0.00     0.163 HD
BRANCH  67  70
ATOM     70  C   UNL d   1       5.949   7.466   7.510  0.00  0.00     0.211 C 
BRANCH  70  71
ATOM     71  O   UNL d   1       5.650   6.098   7.251  0.00  0.00    -0.386 OA
ATOM     72  H   UNL d   1       4.824   6.098   6.738  0.00  0.00     0.210 HD
ENDBRANCH  70  71
BRANCH  70  73
ATOM     73  C   UNL d   1       6.581   7.548   8.912  0.00  0.00     0.071 C 
BRANCH  73  74
ATOM     74  C   UNL d   1       8.112   7.630   9.013  0.00  0.00     0.269 C 
BRANCH  74  75
ATOM     75  N   UNL d   1       8.532   8.110  10.330  0.00  0.00     0.078 N 
ATOM     76  H   UNL d   1       7.971   8.919  10.597  0.00  0.00     0.312 HD
ATOM     77  H   UNL d   1       9.487   8.462  10.267  0.00  0.00     0.312 HD
ENDBRANCH  74  75
ENDBRANCH  73  74
ENDBRANCH  70  73
ENDBRANCH  67  70
ENDBRANCH   4  66
BRANCH   2  78
ATOM     78  N   UNL d   1       6.813  12.949   3.368  0.00  0.00     0.085 N 
ATOM     79  H   UNL d   1       5.993  13.473   3.059  0.00  0.00     0.313 HD
ATOM     80  H   UNL d   1       6.895  12.188   2.692  0.00  0.00     0.313 HD
ENDBRANCH   2  78
TORSDOF 33
