3GCA_PQ0_A_34
  1228              3D

 18 19  0  0  0  0  0  0  0  0999 V2000
    1.7648   -0.6850   -0.0695 N   0  0  0  0  0  0  0  0  0  0  0  0
    2.6244   -1.2243   -0.1134 H   0  0  0  0  0  0  0  0  0  0  0  0
    1.8596    0.7210    0.0325 C   0  0  0  0  0  0  0  0  0  0  0  0
    0.8074    1.5033    0.0798 N   0  0  0  0  0  0  0  0  0  0  0  0
   -0.3650    0.8374   -0.0028 C   0  0  0  0  0  0  0  0  0  0  0  0
   -0.5828   -0.5252   -0.0221 C   0  0  0  0  0  0  0  0  0  0  0  0
    0.5651   -1.4065   -0.1125 C   0  0  0  0  0  0  0  0  0  0  0  0
    0.4871   -2.6267   -0.2032 O   0  0  0  0  0  0  0  0  0  0  0  0
   -1.9773   -0.7192   -0.1485 C   0  0  0  0  0  0  0  0  0  0  0  0
   -2.6773   -1.9597   -0.1694 C   0  0  0  0  0  0  0  0  0  0  0  0
   -3.2308   -2.9782   -0.1933 N   0  0  0  0  0  0  0  0  0  0  0  0
   -2.5712    0.5270   -0.1180 C   0  0  0  0  0  0  0  0  0  0  0  0
   -1.5758    1.4692   -0.0290 N   0  0  0  0  0  0  0  0  0  0  0  0
   -1.7072    2.4722   -0.0098 H   0  0  0  0  0  0  0  0  0  0  0  0
    3.1281    1.2499    0.1206 N   0  0  0  0  0  0  0  0  0  0  0  0
   -3.6059    0.8357   -0.1489 H   0  0  0  0  0  0  0  0  0  0  0  0
    3.1926    1.9678    0.8398 H   0  0  0  0  0  0  0  0  0  0  0  0
    3.8717    0.5696    0.2601 H   0  0  0  0  0  0  0  0  0  0  0  0
  1  2  1  0  0  0  0
  3  1  1  0  0  0  0
  4  3  2  0  0  0  0
  5  4  1  0  0  0  0
  6  5  2  0  0  0  0
  7  6  1  0  0  0  0
  7  1  1  0  0  0  0
  8  7  2  0  0  0  0
  9  6  1  0  0  0  0
 10  9  1  0  0  0  0
 11 10  3  0  0  0  0
 12  9  2  0  0  0  0
 13 12  1  0  0  0  0
 13 14  1  0  0  0  0
 13  5  1  0  0  0  0
 15  3  1  0  0  0  0
 12 16  1  0  0  0  0
 15 17  1  0  0  0  0
 15 18  1  0  0  0  0
M  END
>  <energy>
22.354250570226505

$$$$
