@<TRIPOS>MOLECULE
3GCA_PQ0_A_34
 18 19 0 0 0
SMALL
GASTEIGER

@<TRIPOS>ATOM
      1 N           1.7648   -0.6850   -0.0695 N.ar    1  UNL1       -0.2947
      2 H           2.6244   -1.2243   -0.1134 H       1  UNL1        0.1716
      3 C           1.8596    0.7210    0.0325 C.ar    1  UNL1        0.1949
      4 N           0.8074    1.5033    0.0798 N.ar    1  UNL1       -0.1982
      5 C          -0.3650    0.8374   -0.0028 C.ar    1  UNL1        0.1482
      6 C          -0.5828   -0.5252   -0.0221 C.ar    1  UNL1        0.1003
      7 C           0.5651   -1.4065   -0.1125 C.ar    1  UNL1        0.2632
      8 O           0.4871   -2.6267   -0.2032 O.2     1  UNL1       -0.2670
      9 C          -1.9773   -0.7192   -0.1485 C.ar    1  UNL1        0.0835
     10 C          -2.6773   -1.9597   -0.1694 C.1     1  UNL1        0.1015
     11 N          -3.2308   -2.9782   -0.1933 N.1     1  UNL1       -0.1908
     12 C          -2.5712    0.5270   -0.1180 C.ar    1  UNL1        0.0217
     13 N          -1.5758    1.4692   -0.0290 N.ar    1  UNL1       -0.3443
     14 H          -1.7072    2.4722   -0.0098 H       1  UNL1        0.1668
     15 N           3.1281    1.2499    0.1206 N.pl3   1  UNL1       -0.3289
     16 H          -3.6059    0.8357   -0.1489 H       1  UNL1        0.0820
     17 H           3.1926    1.9678    0.8398 H       1  UNL1        0.1451
     18 H           3.8717    0.5696    0.2601 H       1  UNL1        0.1451
@<TRIPOS>BOND
     1     1     2    1
     2     3     1   ar
     3     4     3   ar
     4     5     4   ar
     5     6     5   ar
     6     7     6   ar
     7     7     1   ar
     8     8     7    2
     9     9     6   ar
    10    10     9    1
    11    11    10    3
    12    12     9   ar
    13    13    12   ar
    14    13    14    1
    15    13     5   ar
    16    15     3    1
    17    12    16    1
    18    15    17    1
    19    15    18    1
