REMARK  1 active torsions:
REMARK  status: ('A' for Active; 'I' for Inactive)
REMARK    1  A    between atoms: N_15  and  C_3 
ROOT
ATOM      1  N   UNL d   1       1.765  -0.685  -0.070  0.00  0.00    -0.297 N 
ATOM      2  H   UNL d   1       2.624  -1.224  -0.113  0.00  0.00     0.171 HD
ATOM      3  C   UNL d   1       1.860   0.721   0.033  0.00  0.00     0.181 A 
ATOM      4  N   UNL d   1       0.807   1.503   0.080  0.00  0.00    -0.201 NA
ATOM      5  C   UNL d   1      -0.365   0.837  -0.003  0.00  0.00     0.148 A 
ATOM      6  C   UNL d   1      -0.583  -0.525  -0.022  0.00  0.00     0.100 A 
ATOM      7  C   UNL d   1       0.565  -1.407  -0.113  0.00  0.00     0.263 A 
ATOM      8  O   UNL d   1       0.487  -2.627  -0.203  0.00  0.00    -0.267 OA
ATOM      9  C   UNL d   1      -1.977  -0.719  -0.148  0.00  0.00     0.079 A 
ATOM     10  C   UNL d   1      -2.677  -1.960  -0.169  0.00  0.00     0.102 C 
ATOM     11  N   UNL d   1      -3.231  -2.978  -0.193  0.00  0.00    -0.191 NA
ATOM     12  C   UNL d   1      -2.571   0.527  -0.118  0.00  0.00     0.113 A 
ATOM     13  N   UNL d   1      -1.576   1.469  -0.029  0.00  0.00    -0.348 N 
ATOM     14  H   UNL d   1      -1.707   2.472  -0.010  0.00  0.00     0.167 HD
ENDROOT
BRANCH   3  15
ATOM     15  N   UNL d   1       3.128   1.250   0.121  0.00  0.00    -0.272 NA
ATOM     16  H   UNL d   1       3.193   1.968   0.840  0.00  0.00     0.127 HD
ATOM     17  H   UNL d   1       3.872   0.570   0.260  0.00  0.00     0.127 HD
ENDBRANCH   3  15
TORSDOF 1
