@<TRIPOS>MOLECULE
1NBK_GND_A_35
 27 26 0 0 0
SMALL
GASTEIGER

@<TRIPOS>ATOM
      1 CA          1.0817    0.9815    2.2631 C.3     1  ARG1        0.0742
      2 HA          0.6579    0.9918    3.2702 H       1  ARG1        0.0968
      3 CB          0.6210   -0.2109    1.4150 C.3     1  ARG1        0.0036
      4 CG          1.0249   -1.5914    1.9493 C.3     1  ARG1       -0.0166
      5 CD          0.4349   -1.8862    3.3254 C.3     1  ARG1        0.0649
      6 NE          0.8448   -3.1814    3.7977 N.pl3   1  ARG1       -0.2761
      7 CZ          0.6096   -3.6215    5.0529 C.cat   1  ARG1        0.3762
      8 NH1        -0.0967   -3.0654    5.9627 N.pl3   1  ARG1       -0.1298
      9 NH2         1.2333   -4.7837    5.3052 N.pl3   1  ARG1       -0.2893
     10 C           2.6056    1.0977    2.3230 C.2     1  ARG1        0.3535
     11 O           3.1938    1.8077    1.5158 O.2     1  ARG1       -0.2446
     12 OXT         3.2314    0.4421    3.3094 O.3     1  ARG1       -0.4767
     13 N           0.5414    2.2331    1.5970 N.4     1  ARG1        0.2288
     14 H1         -0.4802    2.2604    1.5005 H       1  ARG1        0.2002
     15 H2          0.8503    3.0752    2.1051 H       1  ARG1        0.2002
     16 H3          0.9724    2.3311    0.6622 H       1  ARG1        0.2002
     17 HB1         1.0251   -0.1148    0.3983 H       1  ARG1        0.0326
     18 HB2        -0.4724   -0.1843    1.3151 H       1  ARG1        0.0326
     19 HG1         2.1178   -1.6778    1.9752 H       1  ARG1        0.0298
     20 HG2         0.6807   -2.3552    1.2397 H       1  ARG1        0.0298
     21 HD1        -0.6585   -1.8392    3.2771 H       1  ARG1        0.0655
     22 HD2         0.7697   -1.1271    4.0392 H       1  ARG1        0.0655
     23 HE          1.6926   -3.5747    3.3983 H       1  ARG1        0.2579
     24 HH1        -0.5275   -2.2094    5.6264 H       1  ARG1        0.3062
     25 HH21        1.0988   -5.4828    4.5848 H       1  ARG1        0.2546
     26 HH22        0.9108   -5.1520    6.1981 H       1  ARG1        0.2546
     27 HXT         2.7432   -0.0748    3.9817 H       1  ARG1        0.2953
@<TRIPOS>BOND
     1     1     2    1
     2     1     3    1
     3     1    10    1
     4     1    13    1
     5     3     4    1
     6     3    17    1
     7     3    18    1
     8     4     5    1
     9     4    19    1
    10     4    20    1
    11     5     6    1
    12     5    21    1
    13     5    22    1
    14     6     7    1
    15     6    23    1
    16     7     8    2
    17     7     9    1
    18     8    24    1
    19     9    25    1
    20     9    26    1
    21    10    11    2
    22    10    12    1
    23    12    27    1
    24    13    14    1
    25    13    15    1
    26    13    16    1
