REMARK  7 active torsions:
REMARK  status: ('A' for Active; 'I' for Inactive)
REMARK    1  A    between atoms: CA_1  and  CB_2 
REMARK    2  A    between atoms: CA_1  and  C_9 
REMARK    3  A    between atoms: CA_1  and  N_12 
REMARK    4  A    between atoms: CB_2  and  CG_3 
REMARK    5  A    between atoms: CG_3  and  CD_4 
REMARK    6  A    between atoms: CD_4  and  NE_5 
REMARK       I    between atoms: NE_5  and  CZ_6 
REMARK       I    between atoms: CZ_6  and  NH2_8 
REMARK    7  A    between atoms: C_9  and  OXT_11 
ROOT
ATOM      1  CB  ARG d   1       0.621  -0.211   1.415  0.00  0.00     0.045 C 
ENDROOT
BRANCH   1   2
ATOM      2  CA  ARG d   1       1.082   0.982   2.263  0.00  0.00     0.280 C 
BRANCH   2   3
ATOM      3  C   ARG d   1       2.606   1.098   2.323  0.00  0.00     0.171 C 
ATOM      4  O   ARG d   1       3.194   1.808   1.516  0.00  0.00    -0.648 OA
BRANCH   3   5
ATOM      5  OXT ARG d   1       3.231   0.442   3.309  0.00  0.00    -0.775 OA
ATOM      6  HXT ARG d   1       2.743  -0.075   3.982  0.00  0.00     0.167 HD
ENDBRANCH   3   5
ENDBRANCH   2   3
BRANCH   2   7
ATOM      7  N   ARG d   1       0.541   2.233   1.597  0.00  0.00    -0.065 N 
ATOM      8  H1  ARG d   1      -0.480   2.260   1.500  0.00  0.00     0.275 HD
ATOM      9  H2  ARG d   1       0.850   3.075   2.105  0.00  0.00     0.275 HD
ATOM     10  H3  ARG d   1       0.972   2.331   0.662  0.00  0.00     0.275 HD
ENDBRANCH   2   7
ENDBRANCH   1   2
BRANCH   1  11
ATOM     11  CG  ARG d   1       1.025  -1.591   1.949  0.00  0.00     0.022 C 
BRANCH  11  12
ATOM     12  CD  ARG d   1       0.435  -1.886   3.325  0.00  0.00     0.122 C 
BRANCH  12  13
ATOM     13  NE  ARG d   1       0.845  -3.181   3.798  0.00  0.00    -0.366 N 
ATOM     14  CZ  ARG d   1       0.610  -3.622   5.053  0.00  0.00     0.165 C 
ATOM     15  NH1 ARG d   1      -0.097  -3.065   5.963  0.00  0.00    -0.274 NA
ATOM     16  NH2 ARG d   1       1.233  -4.784   5.305  0.00  0.00    -0.273 NA
ATOM     17  HH1 ARG d   1      -0.527  -2.209   5.626  0.00  0.00     0.189 HD
ATOM     18 1HH2 ARG d   1       1.099  -5.483   4.585  0.00  0.00     0.127 HD
ATOM     19 2HH2 ARG d   1       0.911  -5.152   6.198  0.00  0.00     0.127 HD
ATOM     20  HE  ARG d   1       1.693  -3.575   3.398  0.00  0.00     0.162 HD
ENDBRANCH  12  13
ENDBRANCH  11  12
ENDBRANCH   1  11
TORSDOF 7
