untitled
 OpenBabel10091713583D

 85 89  0  0  1  0  0  0  0  0999 V2000
   26.0020   29.3680   16.9260 C   0  0  2  0  0  0  0  0  0  0  0  0
   26.7150   30.1400   15.8960 O   0  0  0  0  0  0  0  0  0  0  0  0
   27.7410   34.3010   15.0350 C   0  0  2  0  0  0  0  0  0  0  0  0
   27.6530   35.7670   14.9550 N   0  0  0  0  0  0  0  0  0  0  0  0
   29.2540   31.6630   18.5480 C   0  0  1  0  0  0  0  0  0  0  0  0
   32.1060   29.6030   21.4560 C   0  0  1  0  0  0  0  0  0  0  0  0
   26.7180   27.9760   17.2420 C   0  0  2  0  0  0  0  0  0  0  0  0
   28.1660   28.1020   17.5830 N   0  0  0  0  0  0  0  0  0  0  0  0
   26.5540   33.6350   14.2730 C   0  0  0  0  0  0  0  0  0  0  0  0
   29.1570   31.4400   20.0580 C   0  0  2  0  0  0  0  0  0  0  0  0
   29.6630   32.5680   20.7810 O   0  0  0  0  0  0  0  0  0  0  0  0
   33.5650   30.1370   21.6430 C   0  0  2  0  0  0  0  0  0  0  0  0
   34.2900   30.2620   20.3520 N   0  0  0  0  0  0  0  0  0  0  0  0
   26.5560   26.9910   16.0220 C   0  0  1  0  0  0  0  0  0  0  0  0
   27.1690   25.7290   16.3070 O   0  0  0  0  0  0  0  0  0  0  0  0
   26.6400   32.0780   14.3650 C   0  0  2  0  0  0  0  0  0  0  0  0
   25.5050   31.5140   13.6150 N   0  0  0  0  0  0  0  0  0  0  0  0
   29.9580   30.1590   20.2800 C   0  0  2  0  0  0  0  0  0  0  0  0
   31.3520   30.4720   20.5470 O   0  0  0  0  0  0  0  0  0  0  0  0
   34.3490   29.1760   22.5990 C   0  0  1  0  0  0  0  0  0  0  0  0
   33.7390   29.1660   23.8920 O   0  0  0  0  0  0  0  0  0  0  0  0
   25.0620   26.7900   15.6880 C   0  0  2  0  0  0  0  0  0  0  0  0
   24.9320   25.8830   14.5760 O   0  0  0  0  0  0  0  0  0  0  0  0
   26.6330   31.6220   15.8700 C   0  0  2  0  0  0  0  0  0  0  0  0
   29.7870   29.4030   18.9790 C   0  0  2  0  0  0  0  0  0  0  0  0
   29.6650   30.4230   17.9760 O   0  0  0  0  0  0  0  0  0  0  0  0
   34.3790   27.7180   22.0320 C   0  0  2  0  0  0  0  0  0  0  0  0
   35.1500   27.7050   20.8160 O   0  0  0  0  0  0  0  0  0  0  0  0
   24.3820   28.1630   15.3840 C   0  0  2  0  0  0  0  0  0  0  0  0
   24.5780   29.0790   16.5390 O   0  0  0  0  0  0  0  0  0  0  0  0
   27.8680   32.3090   16.5980 C   0  0  2  0  0  0  0  0  0  0  0  0
   27.9300   31.9890   18.0260 O   0  0  0  0  0  0  0  0  0  0  0  0
   28.5130   28.5120   18.9560 C   0  0  0  0  0  0  0  0  0  0  0  0
   32.8910   27.2220   21.7830 C   0  0  1  0  0  0  0  0  0  0  0  0
   32.1440   28.1920   20.9580 O   0  0  0  0  0  0  0  0  0  0  0  0
   22.8670   27.9420   15.0940 C   0  0  0  0  0  0  0  0  0  0  0  0
   22.1170   29.1770   14.7940 N   0  0  0  0  0  0  0  0  0  0  0  0
   27.7720   33.8520   16.5080 C   0  0  1  0  0  0  0  0  0  0  0  0
   28.8880   34.4610   17.1620 O   0  0  0  0  0  0  0  0  0  0  0  0
   32.8100   25.7900   21.1470 C   0  0  0  0  0  0  0  0  0  0  0  0
   31.4640   25.3660   20.6740 N   0  0  0  0  0  0  0  0  0  0  0  0
   26.0182   29.9874   17.7984 H   0  0  0  0  0  0  0  0  0  0  0  0
   28.6494   33.9853   14.5659 H   0  0  0  0  0  0  0  0  0  0  0  0
   26.7901   36.0806   15.3994 H   0  0  0  0  0  0  0  0  0  0  0  0
   27.6556   36.0549   13.9765 H   0  0  0  0  0  0  0  0  0  0  0  0
   29.9361   32.4551   18.3193 H   0  0  0  0  0  0  0  0  0  0  0  0
   31.6032   29.6130   22.4005 H   0  0  0  0  0  0  0  0  0  0  0  0
   26.2284   27.5888   18.1111 H   0  0  0  0  0  0  0  0  0  0  0  0
   28.5698   28.7906   16.9481 H   0  0  0  0  0  0  0  0  0  0  0  0
   26.5887   33.9281   13.2445 H   0  0  0  0  0  0  0  0  0  0  0  0
   25.6363   33.9550   14.7206 H   0  0  0  0  0  0  0  0  0  0  0  0
   28.1541   31.3393   20.4171 H   0  0  0  0  0  0  0  0  0  0  0  0
   30.5809   32.7364   20.5163 H   0  0  0  0  0  0  0  0  0  0  0  0
   33.5017   31.1169   22.0681 H   0  0  0  0  0  0  0  0  0  0  0  0
   34.3695   29.3431   19.9163 H   0  0  0  0  0  0  0  0  0  0  0  0
   35.2222   30.6401   20.5208 H   0  0  0  0  0  0  0  0  0  0  0  0
   27.0450   27.4242   15.1746 H   0  0  0  0  0  0  0  0  0  0  0  0
   26.7347   25.3245   17.0743 H   0  0  0  0  0  0  0  0  0  0  0  0
   27.5537   31.7216   13.9371 H   0  0  0  0  0  0  0  0  0  0  0  0
   24.6304   31.8501   14.0182 H   0  0  0  0  0  0  0  0  0  0  0  0
   25.5347   30.4958   13.6680 H   0  0  0  0  0  0  0  0  0  0  0  0
   29.6276   29.5889   21.1231 H   0  0  0  0  0  0  0  0  0  0  0  0
   35.3539   29.5358   22.6748 H   0  0  0  0  0  0  0  0  0  0  0  0
   32.8287   28.8392   23.8176 H   0  0  0  0  0  0  0  0  0  0  0  0
   24.5640   26.3623   16.5330 H   0  0  0  0  0  0  0  0  0  0  0  0
   25.3789   26.2564   13.8003 H   0  0  0  0  0  0  0  0  0  0  0  0
   25.7414   31.9164   16.3832 H   0  0  0  0  0  0  0  0  0  0  0  0
   30.6123   28.7392   18.8271 H   0  0  0  0  0  0  0  0  0  0  0  0
   34.8389   27.0506   22.7305 H   0  0  0  0  0  0  0  0  0  0  0  0
   34.7461   28.3060   20.1706 H   0  0  0  0  0  0  0  0  0  0  0  0
   24.8280   28.6087   14.5195 H   0  0  0  0  0  0  0  0  0  0  0  0
   28.7358   31.9323   16.0981 H   0  0  0  0  0  0  0  0  0  0  0  0
   28.6897   27.6371   19.5461 H   0  0  0  0  0  0  0  0  0  0  0  0
   27.6981   29.0805   19.3530 H   0  0  0  0  0  0  0  0  0  0  0  0
   32.4369   27.1542   22.7495 H   0  0  0  0  0  0  0  0  0  0  0  0
   22.4253   27.4827   15.9536 H   0  0  0  0  0  0  0  0  0  0  0  0
   22.8100   27.3299   14.2182 H   0  0  0  0  0  0  0  0  0  0  0  0
   22.1432   29.7960   15.6043 H   0  0  0  0  0  0  0  0  0  0  0  0
   21.1485   28.9423   14.5766 H   0  0  0  0  0  0  0  0  0  0  0  0
   26.8684   34.1584   16.9923 H   0  0  0  0  0  0  0  0  0  0  0  0
   29.7089   34.1850   16.7251 H   0  0  0  0  0  0  0  0  0  0  0  0
   33.1364   25.0851   21.8829 H   0  0  0  0  0  0  0  0  0  0  0  0
   33.4271   25.8249   20.2735 H   0  0  0  0  0  0  0  0  0  0  0  0
   30.8255   25.3138   21.4678 H   0  0  0  0  0  0  0  0  0  0  0  0
   31.5322   24.4494   20.2317 H   0  0  0  0  0  0  0  0  0  0  0  0
  1  2  1  0  0  0  0
  1  7  1  0  0  0  0
  1 30  1  0  0  0  0
  1 42  1  1  0  0  0
  2 24  1  0  0  0  0
  3  4  1  0  0  0  0
  3  9  1  0  0  0  0
  3 38  1  0  0  0  0
  3 43  1  6  0  0  0
  4 44  1  0  0  0  0
  4 45  1  0  0  0  0
  5 10  1  0  0  0  0
  5 26  1  0  0  0  0
  5 46  1  6  0  0  0
  6 12  1  0  0  0  0
  6 35  1  0  0  0  0
  6 47  1  1  0  0  0
  7  8  1  0  0  0  0
  7 14  1  0  0  0  0
  7 48  1  1  0  0  0
  8 33  1  0  0  0  0
  8 49  1  0  0  0  0
  9 16  1  0  0  0  0
  9 50  1  0  0  0  0
  9 51  1  0  0  0  0
 10 11  1  0  0  0  0
 10 18  1  0  0  0  0
 10 52  1  1  0  0  0
 11 53  1  0  0  0  0
 12 13  1  0  0  0  0
 12 20  1  0  0  0  0
 12 54  1  1  0  0  0
 13 55  1  0  0  0  0
 13 56  1  0  0  0  0
 14 15  1  0  0  0  0
 14 22  1  0  0  0  0
 14 57  1  6  0  0  0
 15 58  1  0  0  0  0
 16 17  1  0  0  0  0
 16 24  1  0  0  0  0
 16 59  1  6  0  0  0
 17 60  1  0  0  0  0
 17 61  1  0  0  0  0
 18 19  1  0  0  0  0
 18 25  1  0  0  0  0
 18 62  1  1  0  0  0
 19  6  1  0  0  0  0
 20 21  1  0  0  0  0
 20 27  1  0  0  0  0
 20 63  1  1  0  0  0
 21 64  1  0  0  0  0
 22 23  1  0  0  0  0
 22 29  1  0  0  0  0
 22 65  1  1  0  0  0
 23 66  1  0  0  0  0
 24 31  1  0  0  0  0
 24 67  1  1  0  0  0
 25 26  1  0  0  0  0
 25 33  1  0  0  0  0
 25 68  1  6  0  0  0
 27 28  1  0  0  0  0
 27 34  1  0  0  0  0
 27 69  1  1  0  0  0
 28 70  1  0  0  0  0
 29 30  1  0  0  0  0
 29 36  1  0  0  0  0
 29 71  1  6  0  0  0
 31 32  1  0  0  0  0
 31 38  1  0  0  0  0
 31 72  1  6  0  0  0
 32  5  1  0  0  0  0
 33 73  1  0  0  0  0
 33 74  1  0  0  0  0
 34 35  1  0  0  0  0
 34 40  1  0  0  0  0
 34 75  1  1  0  0  0
 36 37  1  0  0  0  0
 36 76  1  0  0  0  0
 36 77  1  0  0  0  0
 37 78  1  0  0  0  0
 37 79  1  0  0  0  0
 38 39  1  0  0  0  0
 38 80  1  1  0  0  0
 39 81  1  0  0  0  0
 40 41  1  0  0  0  0
 40 82  1  0  0  0  0
 40 83  1  0  0  0  0
 41 84  1  0  0  0  0
 41 85  1  0  0  0  0
M  END
$$$$
