@<TRIPOS>MOLECULE
1ZZ5_CNY_A_42
 41 45 0 0 0
SMALL
GASTEIGER
****
Coordinates from PDB:1ZZ5:A:42 Model:1 without hydrogens
@<TRIPOS>ATOM
      1 C          24.2160   22.4720   41.6440 C.3     1  UNL1        0.2544
      2 O          24.2150   21.9090   42.9780 O.3     1  UNL1       -0.3278
      3 C          22.8800   23.2180   41.3460 C.3     1  UNL1        0.1620
      4 N          22.5720   24.2500   42.3510 N.3     1  UNL1       -0.2091
      5 C          21.7120   22.1830   41.2440 C.3     1  UNL1        0.2054
      6 O          20.4900   22.8540   40.9520 O.3     1  UNL1       -0.2186
      7 C          22.0330   21.1350   40.1510 C.3     1  UNL1        0.2121
      8 O          20.9900   20.2040   40.0390 O.3     1  UNL1       -0.2177
      9 C          23.3470   20.4150   40.4800 C.3     1  UNL1        0.1696
     10 O          24.4190   21.4250   40.6160 O.3     1  UNL1       -0.3276
     11 C          23.6830   19.3890   39.3680 C.3     1  UNL1        0.1415
     12 N          24.9400   18.6450   39.5820 N.3     1  UNL1       -0.1286
     13 C          27.1070   21.6740   46.1990 C.3     1  UNL1        0.1261
     14 N          28.3800   21.4400   46.9070 N.3     1  UNL1       -0.1301
     15 C          26.6740   20.3650   45.4590 C.3     1  UNL1        0.0433
     16 C          25.3330   20.5750   44.6860 C.3     1  UNL1        0.1230
     17 N          24.9740   19.3030   44.0220 N.3     1  UNL1       -0.1302
     18 C          25.4840   21.7570   43.6720 C.3     1  UNL1        0.1649
     19 C          25.8910   23.0860   44.4550 C.3     1  UNL1        0.1779
     20 O          26.0680   24.2260   43.5330 O.3     1  UNL1       -0.3258
     21 C          27.2340   22.8630   45.1900 C.3     1  UNL1        0.1989
     22 O          27.6060   24.0550   45.8890 O.3     1  UNL1       -0.2189
     23 C          25.5850   25.5480   43.9460 C.3     1  UNL1        0.2694
     24 C          25.9130   26.5790   42.8630 C.3     1  UNL1        0.2372
     25 O          27.0450   27.3720   43.2260 O.3     1  UNL1       -0.2150
     26 C          24.6330   27.4020   42.7160 C.3     1  UNL1        0.1815
     27 O          24.6930   28.6550   43.5080 O.3     1  UNL1       -0.3265
     28 C          23.5370   26.4380   43.1620 C.3     1  UNL1        0.1649
     29 O          24.1640   25.5400   44.0710 O.3     1  UNL1       -0.3270
     30 C          22.9410   25.6330   41.9830 C.3     1  UNL1        0.1210
     31 C          23.8620   29.7950   43.0810 C.3     1  UNL1        0.2561
     32 C          24.0840   31.0780   43.9860 C.3     1  UNL1        0.1807
     33 N          23.8690   30.8370   45.4470 N.3     1  UNL1       -0.1248
     34 C          23.1250   32.2430   43.4670 C.3     1  UNL1        0.2070
     35 O          23.4680   32.6210   42.1110 O.3     1  UNL1       -0.2186
     36 C          21.6110   31.8080   43.4980 C.3     1  UNL1        0.2122
     37 O          21.1920   31.6170   44.8600 O.3     1  UNL1       -0.2177
     38 C          21.4340   30.4820   42.6480 C.3     1  UNL1        0.1696
     39 O          22.3970   29.4190   43.0680 O.3     1  UNL1       -0.3276
     40 C          19.9720   29.9220   42.6600 C.3     1  UNL1        0.1415
     41 N          19.0580   30.5280   41.6580 N.3     1  UNL1       -0.1286
@<TRIPOS>BOND
     1     1     2    1
     2     1     3    1
     3     1    10    1
     4     3     4    1
     5     3     5    1
     6     4    30    1
     7     5     6    1
     8     5     7    1
     9     7     8    1
    10     7     9    1
    11     9    10    1
    12     9    11    1
    13    11    12    1
    14    13    14    1
    15    13    15    1
    16    13    21    1
    17    15    16    1
    18    16    17    1
    19    16    18    1
    20    18     2    1
    21    18    19    1
    22    19    20    1
    23    19    21    1
    24    21    22    1
    25    23    20    1
    26    23    24    1
    27    23    29    1
    28    24    25    1
    29    24    26    1
    30    26    27    1
    31    26    28    1
    32    28    29    1
    33    28    30    1
    34    31    27    1
    35    31    32    1
    36    31    39    1
    37    32    33    1
    38    32    34    1
    39    34    35    1
    40    34    36    1
    41    36    37    1
    42    36    38    1
    43    38    39    1
    44    38    40    1
    45    40    41    1
