1ZZ5_CNY_A_42
 OpenBabel10091713583D
Coordinates from PDB:1ZZ5:A:42 Model:1 without hydrogens
 41 45  0  0  0  0  0  0  0  0999 V2000
   24.2160   22.4720   41.6440 C   0  0  2  0  0  0  0  0  0  0  0  0
   24.2150   21.9090   42.9780 O   0  0  0  0  0  0  0  0  0  0  0  0
   22.8800   23.2180   41.3460 C   0  0  2  0  0  0  0  0  0  0  0  0
   22.5720   24.2500   42.3510 N   0  0  0  0  0  0  0  0  0  0  0  0
   21.7120   22.1830   41.2440 C   0  0  1  0  0  0  0  0  0  0  0  0
   20.4900   22.8540   40.9520 O   0  0  0  0  0  0  0  0  0  0  0  0
   22.0330   21.1350   40.1510 C   0  0  2  0  0  0  0  0  0  0  0  0
   20.9900   20.2040   40.0390 O   0  0  0  0  0  0  0  0  0  0  0  0
   23.3470   20.4150   40.4800 C   0  0  2  0  0  0  0  0  0  0  0  0
   24.4190   21.4250   40.6160 O   0  0  0  0  0  0  0  0  0  0  0  0
   23.6830   19.3890   39.3680 C   0  0  0  0  0  0  0  0  0  0  0  0
   24.9400   18.6450   39.5820 N   0  0  0  0  0  0  0  0  0  0  0  0
   27.1070   21.6740   46.1990 C   0  0  2  0  0  0  0  0  0  0  0  0
   28.3800   21.4400   46.9070 N   0  0  0  0  0  0  0  0  0  0  0  0
   26.6740   20.3650   45.4590 C   0  0  0  0  0  0  0  0  0  0  0  0
   25.3330   20.5750   44.6860 C   0  0  2  0  0  0  0  0  0  0  0  0
   24.9740   19.3030   44.0220 N   0  0  0  0  0  0  0  0  0  0  0  0
   25.4840   21.7570   43.6720 C   0  0  2  0  0  0  0  0  0  0  0  0
   25.8910   23.0860   44.4550 C   0  0  2  0  0  0  0  0  0  0  0  0
   26.0680   24.2260   43.5330 O   0  0  0  0  0  0  0  0  0  0  0  0
   27.2340   22.8630   45.1900 C   0  0  1  0  0  0  0  0  0  0  0  0
   27.6060   24.0550   45.8890 O   0  0  0  0  0  0  0  0  0  0  0  0
   25.5850   25.5480   43.9460 C   0  0  1  0  0  0  0  0  0  0  0  0
   25.9130   26.5790   42.8630 C   0  0  2  0  0  0  0  0  0  0  0  0
   27.0450   27.3720   43.2260 O   0  0  0  0  0  0  0  0  0  0  0  0
   24.6330   27.4020   42.7160 C   0  0  2  0  0  0  0  0  0  0  0  0
   24.6930   28.6550   43.5080 O   0  0  0  0  0  0  0  0  0  0  0  0
   23.5370   26.4380   43.1620 C   0  0  2  0  0  0  0  0  0  0  0  0
   24.1640   25.5400   44.0710 O   0  0  0  0  0  0  0  0  0  0  0  0
   22.9410   25.6330   41.9830 C   0  0  0  0  0  0  0  0  0  0  0  0
   23.8620   29.7950   43.0810 C   0  0  2  0  0  0  0  0  0  0  0  0
   24.0840   31.0780   43.9860 C   0  0  2  0  0  0  0  0  0  0  0  0
   23.8690   30.8370   45.4470 N   0  0  0  0  0  0  0  0  0  0  0  0
   23.1250   32.2430   43.4670 C   0  0  1  0  0  0  0  0  0  0  0  0
   23.4680   32.6210   42.1110 O   0  0  0  0  0  0  0  0  0  0  0  0
   21.6110   31.8080   43.4980 C   0  0  2  0  0  0  0  0  0  0  0  0
   21.1920   31.6170   44.8600 O   0  0  0  0  0  0  0  0  0  0  0  0
   21.4340   30.4820   42.6480 C   0  0  1  0  0  0  0  0  0  0  0  0
   22.3970   29.4190   43.0680 O   0  0  0  0  0  0  0  0  0  0  0  0
   19.9720   29.9220   42.6600 C   0  0  0  0  0  0  0  0  0  0  0  0
   19.0580   30.5280   41.6580 N   0  0  0  0  0  0  0  0  0  0  0  0
  1  2  1  1  0  0  0
  1  3  1  0  0  0  0
  1 10  1  0  0  0  0
  3  4  1  1  0  0  0
  3  5  1  0  0  0  0
  4 30  1  0  0  0  0
  5  6  1  6  0  0  0
  5  7  1  0  0  0  0
  7  8  1  1  0  0  0
  7  9  1  0  0  0  0
  9 10  1  0  0  0  0
  9 11  1  6  0  0  0
 11 12  1  0  0  0  0
 13 14  1  6  0  0  0
 13 15  1  0  0  0  0
 13 21  1  0  0  0  0
 15 16  1  0  0  0  0
 16 17  1  6  0  0  0
 16 18  1  0  0  0  0
 18  2  1  1  0  0  0
 18 19  1  0  0  0  0
 19 20  1  6  0  0  0
 19 21  1  0  0  0  0
 21 22  1  1  0  0  0
 23 20  1  6  0  0  0
 23 24  1  0  0  0  0
 23 29  1  0  0  0  0
 24 25  1  1  0  0  0
 24 26  1  0  0  0  0
 26 27  1  1  0  0  0
 26 28  1  0  0  0  0
 28 29  1  0  0  0  0
 28 30  1  6  0  0  0
 31 27  1  1  0  0  0
 31 32  1  0  0  0  0
 31 39  1  0  0  0  0
 32 33  1  1  0  0  0
 32 34  1  0  0  0  0
 34 35  1  6  0  0  0
 34 36  1  0  0  0  0
 36 37  1  1  0  0  0
 36 38  1  0  0  0  0
 38 39  1  0  0  0  0
 38 40  1  1  0  0  0
 40 41  1  0  0  0  0
A    1
C11
A    2
O11
A    3
C21
A    4
N21
A    5
C31
A    6
O31
A    7
C41
A    8
O41
A    9
C51
A   10
O51
A   11
C61
A   12
N61
A   13
C12
A   14
N12
A   15
C22
A   16
C32
A   17
N32
A   18
C42
A   19
C52
A   20
O52
A   21
C62
A   22
O62
A   23
C13
A   24
C23
A   25
O23
A   26
C33
A   27
O33
A   28
C43
A   29
O43
A   30
C53
A   31
C14
A   32
C24
A   33
N24
A   34
C34
A   35
O34
A   36
C44
A   37
O44
A   38
C54
A   39
O54
A   40
C64
A   41
N64
M  END
>  <InstanceId>
1ZZ5_CNY_A_42

>  <ChemCompId>
CNY

>  <PdbId>
1ZZ5

>  <ChainId>
A

>  <ResidueNumber>
42

>  <InsertionCode>


>  <Model>
1

>  <AltIds>


>  <MissingHeavyAtoms>
0

>  <ObservedFormula>
C23 N6 O12

>  <Name>
13,15-DIAMINO-2-(AMINOMETHYL)-3,4,9,12-TETRAHYDROXYHEXADECAHYDRO-2H-7,10-EPOXYPYRANO[2,3-B][1,10,4]BENZODIOXAZACYCLODODECIN-8-YL 2,6-DIAMINO-2,6-DIDEOXYHEXOPYRANOSIDE

>  <SystematicName>


>  <Synonyms>
CYCLIC NEOMYCIN

>  <Type>
NON-POLYMER

>  <Formula>
C23 H44 N6 O12

>  <MolecularWeight>
596.628

>  <ModifiedDate>
2011-06-04

>  <Parent>


>  <OneLetterCode>


>  <SubcomponentList>


>  <AmbiguousFlag>
N

>  <InChI>
InChI=1S/C23H44N6O12/c24-2-7-13(31)15(33)10(28)21(36-7)40-19-9-4-29-11-16(34)14(32)8(3-25)37-22(11)39-18-6(27)1-5(26)12(30)20(18)41-23(38-9)17(19)35/h5-23,29-35H,1-4,24-28H2/t5-,6+,7+,8-,9-,10-,11-,12+,13-,14-,15-,16-,17-,18-,19-,20-,21-,22-,23+/m1/s1

>  <InChIKey>
DXIORKRGAWCDSD-LSWIJEOBSA-N

>  <SMILES>
C1[C@H]([C@@H]([C@@H]2[C@@H]([C@H]1N)O[C@@H]3[C@@H]([C@H]([C@@H]([C@H](O3)CN)O)O)NC[C@@H]4[C@H]([C@H]([C@@H](O4)O2)O)O[C@@H]5[C@@H]([C@H]([C@@H]([C@@H](O5)CN)O)O)N)O)N

$$$$
