REMARK  4 active torsions:
REMARK  status: ('A' for Active; 'I' for Inactive)
REMARK    1  A    between atoms: C_9  and  C_11 
REMARK    2  A    between atoms: C_26  and  O_27 
REMARK    3  A    between atoms: C_31  and  O_27 
REMARK    4  A    between atoms: C_38  and  C_40 
ROOT
ATOM      1  C   UNL d   1      24.216  22.472  41.644  0.00  0.00     0.261 C 
ATOM      2  O   UNL d   1      24.215  21.909  42.978  0.00  0.00    -0.327 OA
ATOM      3  C   UNL d   1      22.880  23.218  41.346  0.00  0.00     0.187 C 
ATOM      4  N   UNL d   1      22.572  24.250  42.351  0.00  0.00    -0.287 NA
ATOM      5  C   UNL d   1      21.712  22.183  41.244  0.00  0.00     0.212 C 
ATOM      6  O   UNL d   1      20.490  22.854  40.952  0.00  0.00    -0.218 OA
ATOM      7  C   UNL d   1      22.033  21.135  40.151  0.00  0.00     0.214 C 
ATOM      8  O   UNL d   1      20.990  20.204  40.039  0.00  0.00    -0.218 OA
ATOM      9  C   UNL d   1      23.347  20.415  40.480  0.00  0.00     0.190 C 
ATOM     10  O   UNL d   1      24.419  21.425  40.616  0.00  0.00    -0.327 OA
ATOM     11  C   UNL d   1      27.107  21.674  46.199  0.00  0.00     0.337 C 
ATOM     12  N   UNL d   1      28.380  21.440  46.907  0.00  0.00     0.619 N 
ATOM     13  C   UNL d   1      26.674  20.365  45.459  0.00  0.00     0.084 C 
ATOM     14  C   UNL d   1      25.333  20.575  44.686  0.00  0.00     0.333 C 
ATOM     15  N   UNL d   1      24.974  19.303  44.022  0.00  0.00     0.619 N 
ATOM     16  C   UNL d   1      25.484  21.757  43.672  0.00  0.00     0.184 C 
ATOM     17  C   UNL d   1      25.891  23.086  44.455  0.00  0.00     0.180 C 
ATOM     18  O   UNL d   1      26.068  24.226  43.533  0.00  0.00    -0.326 OA
ATOM     19  C   UNL d   1      27.234  22.863  45.190  0.00  0.00     0.218 C 
ATOM     20  O   UNL d   1      27.606  24.055  45.889  0.00  0.00    -0.218 OA
ATOM     21  C   UNL d   1      25.585  25.548  43.946  0.00  0.00     0.270 C 
ATOM     22  C   UNL d   1      25.913  26.579  42.863  0.00  0.00     0.238 C 
ATOM     23  O   UNL d   1      27.045  27.372  43.226  0.00  0.00    -0.215 OA
ATOM     24  C   UNL d   1      24.633  27.402  42.716  0.00  0.00     0.182 C 
ATOM     25  C   UNL d   1      23.537  26.438  43.162  0.00  0.00     0.172 C 
ATOM     26  O   UNL d   1      24.164  25.540  44.071  0.00  0.00    -0.327 OA
ATOM     27  C   UNL d   1      22.941  25.633  41.983  0.00  0.00     0.152 C 
ENDROOT
BRANCH  24  28
ATOM     28  O   UNL d   1      24.693  28.655  43.508  0.00  0.00    -0.326 OA
BRANCH  28  29
ATOM     29  C   UNL d   1      23.862  29.795  43.081  0.00  0.00     0.277 C 
ATOM     30  C   UNL d   1      24.084  31.078  43.986  0.00  0.00     0.390 C 
ATOM     31  N   UNL d   1      23.869  30.837  45.447  0.00  0.00     0.624 N 
ATOM     32  C   UNL d   1      23.125  32.243  43.467  0.00  0.00     0.227 C 
ATOM     33  O   UNL d   1      23.468  32.621  42.111  0.00  0.00    -0.218 OA
ATOM     34  C   UNL d   1      21.611  31.808  43.498  0.00  0.00     0.214 C 
ATOM     35  O   UNL d   1      21.192  31.617  44.860  0.00  0.00    -0.218 OA
ATOM     36  C   UNL d   1      21.434  30.482  42.648  0.00  0.00     0.190 C 
ATOM     37  O   UNL d   1      22.397  29.419  43.068  0.00  0.00    -0.327 OA
BRANCH  36  38
ATOM     38  C   UNL d   1      19.972  29.922  42.660  0.00  0.00     0.370 C 
ATOM     39  N   UNL d   1      19.058  30.528  41.658  0.00  0.00     0.621 N 
ENDBRANCH  36  38
ENDBRANCH  28  29
ENDBRANCH  24  28
BRANCH   9  40
ATOM     40  C   UNL d   1      23.683  19.389  39.368  0.00  0.00     0.370 C 
ATOM     41  N   UNL d   1      24.940  18.645  39.582  0.00  0.00     0.621 N 
ENDBRANCH   9  40
TORSDOF 4
