@<TRIPOS>MOLECULE
2O3Y_SPM_A_51
 40 39 0 0 0
SMALL
GASTEIGER

@<TRIPOS>ATOM
      1 N          -3.8695    0.7879   -0.2159 N.3     1  UNL1       -0.3299
      2 C          -3.6064   -0.5468   -0.7469 C.3     1  UNL1       -0.0058
      3 C          -3.0142   -1.4754    0.3160 C.3     1  UNL1       -0.0281
      4 C          -4.0662   -1.9469    1.3261 C.3     1  UNL1       -0.0030
      5 N          -3.3883   -2.7039    2.3786 N.3     1  UNL1       -0.3159
      6 C          -3.9787   -4.0161    2.6302 C.3     1  UNL1       -0.0041
      7 C          -3.5694   -5.0718    1.5960 C.3     1  UNL1       -0.0393
      8 C          -2.0485   -5.2165    1.4340 C.3     1  UNL1       -0.0393
      9 C          -1.5574   -6.6597    1.6029 C.3     1  UNL1       -0.0041
     10 N          -1.9054   -7.5036    0.4630 N.3     1  UNL1       -0.3159
     11 C          -2.8354   -8.5785    0.7919 C.3     1  UNL1       -0.0030
     12 C          -2.3365   -9.9063    0.2154 C.3     1  UNL1       -0.0281
     13 C          -1.1397  -10.4841    0.9762 C.3     1  UNL1       -0.0058
     14 N           0.1206  -10.0626    0.3707 N.3     1  UNL1       -0.3299
     15 H          -4.7769    0.7955    0.2480 H       1  UNL1        0.1182
     16 H          -3.1854    1.0244    0.5029 H       1  UNL1        0.1182
     17 H          -2.9010   -0.4560   -1.5811 H       1  UNL1        0.0422
     18 H          -4.5311   -0.9703   -1.1541 H       1  UNL1        0.0422
     19 H          -2.1847   -0.9722    0.8295 H       1  UNL1        0.0290
     20 H          -2.5869   -2.3495   -0.1945 H       1  UNL1        0.0290
     21 H          -4.8392   -2.5321    0.8136 H       1  UNL1        0.0424
     22 H          -4.5641   -1.0832    1.7818 H       1  UNL1        0.0424
     23 H          -3.3950   -2.1657    3.2443 H       1  UNL1        0.1219
     24 H          -3.6517   -4.3525    3.6217 H       1  UNL1        0.0424
     25 H          -5.0723   -3.9479    2.6782 H       1  UNL1        0.0424
     26 H          -4.0126   -6.0268    1.9049 H       1  UNL1        0.0278
     27 H          -4.0176   -4.8337    0.6222 H       1  UNL1        0.0278
     28 H          -1.5158   -4.6023    2.1714 H       1  UNL1        0.0278
     29 H          -1.7527   -4.8332    0.4480 H       1  UNL1        0.0278
     30 H          -1.9034   -7.0595    2.5649 H       1  UNL1        0.0424
     31 H          -0.4628   -6.6396    1.6640 H       1  UNL1        0.0424
     32 H          -2.2808   -6.9430   -0.3000 H       1  UNL1        0.1219
     33 H          -3.0092   -8.6918    1.8678 H       1  UNL1        0.0424
     34 H          -3.8093   -8.3494    0.3462 H       1  UNL1        0.0424
     35 H          -3.1586  -10.6334    0.2697 H       1  UNL1        0.0290
     36 H          -2.1109   -9.7968   -0.8545 H       1  UNL1        0.0290
     37 H          -1.1571  -10.1782    2.0280 H       1  UNL1        0.0422
     38 H          -1.1918  -11.5786    0.9612 H       1  UNL1        0.0422
     39 H           0.8707  -10.1423    1.0568 H       1  UNL1        0.1182
     40 H           0.3637  -10.7021   -0.3853 H       1  UNL1        0.1182
@<TRIPOS>BOND
     1     2     1    1
     2     3     2    1
     3     4     3    1
     4     5     4    1
     5     6     5    1
     6     7     6    1
     7     8     7    1
     8     9     8    1
     9    10     9    1
    10    11    10    1
    11    12    11    1
    12    13    12    1
    13    14    13    1
    14     1    15    1
    15     1    16    1
    16     2    17    1
    17     2    18    1
    18     3    19    1
    19     3    20    1
    20     4    21    1
    21     4    22    1
    22     5    23    1
    23     6    24    1
    24     6    25    1
    25     7    26    1
    26     7    27    1
    27     8    28    1
    28     8    29    1
    29     9    30    1
    30     9    31    1
    31    10    32    1
    32    11    33    1
    33    11    34    1
    34    12    35    1
    35    12    36    1
    36    13    37    1
    37    13    38    1
    38    14    39    1
    39    14    40    1
