2O3Y_SPM_A_51
  1228              3D

 40 39  0  0  0  0  0  0  0  0999 V2000
   -3.8695    0.7879   -0.2159 N   0  0  0  0  0  0  0  0  0  0  0  0
   -3.6064   -0.5468   -0.7469 C   0  0  0  0  0  0  0  0  0  0  0  0
   -3.0142   -1.4754    0.3160 C   0  0  0  0  0  0  0  0  0  0  0  0
   -4.0662   -1.9469    1.3261 C   0  0  0  0  0  0  0  0  0  0  0  0
   -3.3883   -2.7039    2.3786 N   0  0  0  0  0  0  0  0  0  0  0  0
   -3.9787   -4.0161    2.6302 C   0  0  0  0  0  0  0  0  0  0  0  0
   -3.5694   -5.0718    1.5960 C   0  0  0  0  0  0  0  0  0  0  0  0
   -2.0485   -5.2165    1.4340 C   0  0  0  0  0  0  0  0  0  0  0  0
   -1.5574   -6.6597    1.6029 C   0  0  0  0  0  0  0  0  0  0  0  0
   -1.9054   -7.5036    0.4630 N   0  0  0  0  0  0  0  0  0  0  0  0
   -2.8354   -8.5785    0.7919 C   0  0  0  0  0  0  0  0  0  0  0  0
   -2.3365   -9.9063    0.2154 C   0  0  0  0  0  0  0  0  0  0  0  0
   -1.1397  -10.4841    0.9762 C   0  0  0  0  0  0  0  0  0  0  0  0
    0.1206  -10.0626    0.3707 N   0  0  0  0  0  0  0  0  0  0  0  0
   -4.7769    0.7955    0.2480 H   0  0  0  0  0  0  0  0  0  0  0  0
   -3.1854    1.0244    0.5029 H   0  0  0  0  0  0  0  0  0  0  0  0
   -2.9010   -0.4560   -1.5811 H   0  0  0  0  0  0  0  0  0  0  0  0
   -4.5311   -0.9703   -1.1541 H   0  0  0  0  0  0  0  0  0  0  0  0
   -2.1847   -0.9722    0.8295 H   0  0  0  0  0  0  0  0  0  0  0  0
   -2.5869   -2.3495   -0.1945 H   0  0  0  0  0  0  0  0  0  0  0  0
   -4.8392   -2.5321    0.8136 H   0  0  0  0  0  0  0  0  0  0  0  0
   -4.5641   -1.0832    1.7818 H   0  0  0  0  0  0  0  0  0  0  0  0
   -3.3950   -2.1657    3.2443 H   0  0  0  0  0  0  0  0  0  0  0  0
   -3.6517   -4.3525    3.6217 H   0  0  0  0  0  0  0  0  0  0  0  0
   -5.0723   -3.9479    2.6782 H   0  0  0  0  0  0  0  0  0  0  0  0
   -4.0126   -6.0268    1.9049 H   0  0  0  0  0  0  0  0  0  0  0  0
   -4.0176   -4.8337    0.6222 H   0  0  0  0  0  0  0  0  0  0  0  0
   -1.5158   -4.6023    2.1714 H   0  0  0  0  0  0  0  0  0  0  0  0
   -1.7527   -4.8332    0.4480 H   0  0  0  0  0  0  0  0  0  0  0  0
   -1.9034   -7.0595    2.5649 H   0  0  0  0  0  0  0  0  0  0  0  0
   -0.4628   -6.6396    1.6640 H   0  0  0  0  0  0  0  0  0  0  0  0
   -2.2808   -6.9430   -0.3000 H   0  0  0  0  0  0  0  0  0  0  0  0
   -3.0092   -8.6918    1.8678 H   0  0  0  0  0  0  0  0  0  0  0  0
   -3.8093   -8.3494    0.3462 H   0  0  0  0  0  0  0  0  0  0  0  0
   -3.1586  -10.6334    0.2697 H   0  0  0  0  0  0  0  0  0  0  0  0
   -2.1109   -9.7968   -0.8545 H   0  0  0  0  0  0  0  0  0  0  0  0
   -1.1571  -10.1782    2.0280 H   0  0  0  0  0  0  0  0  0  0  0  0
   -1.1918  -11.5786    0.9612 H   0  0  0  0  0  0  0  0  0  0  0  0
    0.8707  -10.1423    1.0568 H   0  0  0  0  0  0  0  0  0  0  0  0
    0.3637  -10.7021   -0.3853 H   0  0  0  0  0  0  0  0  0  0  0  0
  2  1  1  0  0  0  0
  3  2  1  0  0  0  0
  4  3  1  0  0  0  0
  5  4  1  0  0  0  0
  6  5  1  0  0  0  0
  7  6  1  0  0  0  0
  8  7  1  0  0  0  0
  9  8  1  0  0  0  0
 10  9  1  0  0  0  0
 11 10  1  0  0  0  0
 12 11  1  0  0  0  0
 13 12  1  0  0  0  0
 14 13  1  0  0  0  0
  1 15  1  0  0  0  0
  1 16  1  0  0  0  0
  2 17  1  0  0  0  0
  2 18  1  0  0  0  0
  3 19  1  0  0  0  0
  3 20  1  0  0  0  0
  4 21  1  0  0  0  0
  4 22  1  0  0  0  0
  5 23  1  0  0  0  0
  6 24  1  0  0  0  0
  6 25  1  0  0  0  0
  7 26  1  0  0  0  0
  7 27  1  0  0  0  0
  8 28  1  0  0  0  0
  8 29  1  0  0  0  0
  9 30  1  0  0  0  0
  9 31  1  0  0  0  0
 10 32  1  0  0  0  0
 11 33  1  0  0  0  0
 11 34  1  0  0  0  0
 12 35  1  0  0  0  0
 12 36  1  0  0  0  0
 13 37  1  0  0  0  0
 13 38  1  0  0  0  0
 14 39  1  0  0  0  0
 14 40  1  0  0  0  0
M  END
>  <energy>
7.869479024681084

$$$$
