REMARK  13 active torsions:
REMARK  status: ('A' for Active; 'I' for Inactive)
REMARK    1  A    between atoms: C_2  and  N_1 
REMARK    2  A    between atoms: C_3  and  C_2 
REMARK    3  A    between atoms: C_4  and  C_3 
REMARK    4  A    between atoms: N_5  and  C_4 
REMARK    5  A    between atoms: C_6  and  N_5 
REMARK    6  A    between atoms: C_7  and  C_6 
REMARK    7  A    between atoms: C_8  and  C_7 
REMARK    8  A    between atoms: C_9  and  C_8 
REMARK    9  A    between atoms: N_10  and  C_9 
REMARK   10  A    between atoms: C_11  and  N_10 
REMARK   11  A    between atoms: C_12  and  C_11 
REMARK   12  A    between atoms: C_13  and  C_12 
REMARK   13  A    between atoms: N_14  and  C_13 
ROOT
ATOM      1  C   UNL d   1      -3.569  -5.072   1.596  0.00  0.00     0.032 C 
ENDROOT
BRANCH   1   2
ATOM      2  C   UNL d   1      -3.979  -4.016   2.630  0.00  0.00     0.269 C 
BRANCH   2   3
ATOM      3  N   UNL d   1      -3.388  -2.704   2.379  0.00  0.00     0.083 N 
ATOM      4  H   UNL d   1      -3.395  -2.166   3.244  0.00  0.00     0.315 HD
BRANCH   3   5
ATOM      5  C   UNL d   1      -4.066  -1.947   1.326  0.00  0.00     0.271 C 
BRANCH   5   6
ATOM      6  C   UNL d   1      -3.014  -1.475   0.316  0.00  0.00     0.059 C 
BRANCH   6   7
ATOM      7  C   UNL d   1      -3.606  -0.547  -0.747  0.00  0.00     0.268 C 
BRANCH   7   8
ATOM      8  N   UNL d   1      -3.869   0.788  -0.216  0.00  0.00     0.078 N 
ATOM      9  H   UNL d   1      -4.777   0.795   0.248  0.00  0.00     0.312 HD
ATOM     10  H   UNL d   1      -3.185   1.024   0.503  0.00  0.00     0.312 HD
ENDBRANCH   7   8
ENDBRANCH   6   7
ENDBRANCH   5   6
ENDBRANCH   3   5
ENDBRANCH   2   3
ENDBRANCH   1   2
BRANCH   1  11
ATOM     11  C   UNL d   1      -2.049  -5.216   1.434  0.00  0.00     0.032 C 
BRANCH  11  12
ATOM     12  C   UNL d   1      -1.557  -6.660   1.603  0.00  0.00     0.269 C 
BRANCH  12  13
ATOM     13  N   UNL d   1      -1.905  -7.504   0.463  0.00  0.00     0.083 N 
ATOM     14  H   UNL d   1      -2.281  -6.943  -0.300  0.00  0.00     0.315 HD
BRANCH  13  15
ATOM     15  C   UNL d   1      -2.835  -8.579   0.792  0.00  0.00     0.271 C 
BRANCH  15  16
ATOM     16  C   UNL d   1      -2.337  -9.906   0.215  0.00  0.00     0.059 C 
BRANCH  16  17
ATOM     17  C   UNL d   1      -1.140 -10.484   0.976  0.00  0.00     0.268 C 
BRANCH  17  18
ATOM     18  N   UNL d   1       0.121 -10.063   0.371  0.00  0.00     0.078 N 
ATOM     19  H   UNL d   1       0.871 -10.142   1.057  0.00  0.00     0.312 HD
ATOM     20  H   UNL d   1       0.364 -10.702  -0.385  0.00  0.00     0.312 HD
ENDBRANCH  17  18
ENDBRANCH  16  17
ENDBRANCH  15  16
ENDBRANCH  13  15
ENDBRANCH  12  13
ENDBRANCH  11  12
ENDBRANCH   1  11
TORSDOF 13
