3NPQ_SAH_A_55
 OpenBabel10091713573D
Coordinates from PDB:3NPQ:A:55 Model:1 without hydrogens
 26 28  0  0  0  0  0  0  0  0999 V2000
   29.4470  -21.8880   13.1640 N   0  0  0  0  0  0  0  0  0  0  0  0
   30.3260  -22.2220   14.2790 C   0  0  1  0  0  0  0  0  0  0  0  0
   29.5190  -22.4160   15.5540 C   0  0  0  0  0  0  0  0  0  0  0  0
   28.8100  -23.7640   15.5810 C   0  0  0  0  0  0  0  0  0  0  0  0
   28.2530  -24.2810   17.2200 S   0  0  0  0  0  0  0  0  0  0  0  0
   31.1110  -23.4930   13.9830 C   0  0  0  0  0  0  0  0  0  0  0  0
   32.0860  -23.8140   14.6620 O   0  0  0  0  0  0  0  0  0  0  0  0
   30.7850  -24.2330   13.0550 O   0  0  0  0  0  0  0  0  0  0  0  0
   29.9650  -24.6690   17.6520 C   0  0  0  0  0  0  0  0  0  0  0  0
   30.0540  -25.7190   18.7480 C   0  0  1  0  0  0  0  0  0  0  0  0
   29.6660  -25.1770   19.9970 O   0  0  0  0  0  0  0  0  0  0  0  0
   29.1390  -26.8920   18.4510 C   0  0  1  0  0  0  0  0  0  0  0  0
   29.9300  -28.0250   18.1810 O   0  0  0  0  0  0  0  0  0  0  0  0
   28.3280  -27.1020   19.7110 C   0  0  1  0  0  0  0  0  0  0  0  0
   28.5450  -28.4090   20.1820 O   0  0  0  0  0  0  0  0  0  0  0  0
   28.8500  -26.0840   20.7150 C   0  0  2  0  0  0  0  0  0  0  0  0
   27.7330  -25.3720   21.3690 N   0  0  0  0  0  0  0  0  0  0  0  0
   27.3710  -24.0600   21.2010 C   0  0  0  0  0  0  0  0  0  0  0  0
   26.2950  -23.7980   21.9760 N   0  0  0  0  0  0  0  0  0  0  0  0
   25.9640  -24.9260   22.6400 C   0  0  0  0  0  0  0  0  0  0  0  0
   24.9590  -25.2150   23.5520 C   0  0  0  0  0  0  0  0  0  0  0  0
   24.1000  -24.2660   23.9100 N   0  0  0  0  0  0  0  0  0  0  0  0
   24.8590  -26.4850   24.0790 N   0  0  0  0  0  0  0  0  0  0  0  0
   25.7590  -27.4590   23.6960 C   0  0  0  0  0  0  0  0  0  0  0  0
   26.7560  -27.1640   22.7890 N   0  0  0  0  0  0  0  0  0  0  0  0
   26.8580  -25.9190   22.2690 C   0  0  0  0  0  0  0  0  0  0  0  0
  2  1  1  6  0  0  0
  2  3  1  0  0  0  0
  2  6  1  0  0  0  0
  3  4  1  0  0  0  0
  4  5  1  0  0  0  0
  5  9  1  0  0  0  0
  6  7  2  0  0  0  0
  6  8  1  0  0  0  0
 10  9  1  6  0  0  0
 10 11  1  0  0  0  0
 10 12  1  0  0  0  0
 11 16  1  0  0  0  0
 12 13  1  1  0  0  0
 12 14  1  0  0  0  0
 14 15  1  1  0  0  0
 14 16  1  0  0  0  0
 16 17  1  6  0  0  0
 17 18  1  0  0  0  0
 17 26  1  0  0  0  0
 18 19  2  0  0  0  0
 19 20  1  0  0  0  0
 20 21  1  0  0  0  0
 20 26  2  0  0  0  0
 21 22  1  0  0  0  0
 21 23  2  0  0  0  0
 23 24  1  0  0  0  0
 24 25  2  0  0  0  0
 25 26  1  0  0  0  0
A    1
N
A    2
CA
A    3
CB
A    4
CG
A    5
SD
A    6
C
A    7
O
A    8
OXT
A    9
C5'
A   10
C4'
A   11
O4'
A   12
C3'
A   13
O3'
A   14
C2'
A   15
O2'
A   16
C1'
A   17
N9
A   18
C8
A   19
N7
A   20
C5
A   21
C6
A   22
N6
A   23
N1
A   24
C2
A   25
N3
A   26
C4
M  END
>  <InstanceId>
3NPQ_SAH_A_55

>  <ChemCompId>
SAH

>  <PdbId>
3NPQ

>  <ChainId>
A

>  <ResidueNumber>
55

>  <InsertionCode>


>  <Model>
1

>  <AltIds>


>  <MissingHeavyAtoms>
0

>  <ObservedFormula>
C14 N6 O5 S

>  <Name>
S-ADENOSYL-L-HOMOCYSTEINE

>  <SystematicName>
(2S)-2-amino-4-[[(2S,3S,4R,5R)-5-(6-aminopurin-9-yl)-3,4-dihydroxy-oxolan-2-yl]methylsulfanyl]butanoic acid

>  <Synonyms>


>  <Type>
L-PEPTIDE LINKING

>  <Formula>
C14 H20 N6 O5 S

>  <MolecularWeight>
384.411

>  <ModifiedDate>
2011-06-04

>  <Parent>
CYS

>  <OneLetterCode>
C

>  <SubcomponentList>


>  <AmbiguousFlag>
N

>  <InChI>
InChI=1S/C14H20N6O5S/c15-6(14(23)24)1-2-26-3-7-9(21)10(22)13(25-7)20-5-19-8-11(16)17-4-18-12(8)20/h4-7,9-10,13,21-22H,1-3,15H2,(H,23,24)(H2,16,17,18)/t6-,7+,9+,10+,13+/m0/s1

>  <InChIKey>
ZJUKTBDSGOFHSH-WFMPWKQPSA-N

>  <SMILES>
c1nc(c2c(n1)n(cn2)[C@H]3[C@@H]([C@@H]([C@H](O3)CSCC[C@@H](C(=O)O)N)O)O)N

$$$$
