@<TRIPOS>MOLECULE
3NPQ_SAH_A_55
 26 28 0 0 0
SMALL
GASTEIGER
****
Coordinates from PDB:3NPQ:A:55 Model:1 without hydrogens
@<TRIPOS>ATOM
      1 N1         29.4470  -21.8880   13.1640 N.3     1  <1>        -0.1208
      2 C1         30.3260  -22.2220   14.2790 C.3     1  <1>         0.1952
      3 C2         29.5190  -22.4160   15.5540 C.3     1  <1>         0.0422
      4 C3         28.8100  -23.7640   15.5810 C.3     1  <1>         0.0597
      5 S1         28.2530  -24.2810   17.2200 S.3     1  <1>        -0.1375
      6 C4         31.1110  -23.4930   13.9830 C.2     1  <1>         0.3819
      7 O1         32.0860  -23.8140   14.6620 O.co2   1  <1>        -0.2441
      8 O2         30.7850  -24.2330   13.0550 O.co2   1  <1>        -0.2441
      9 C5         29.9650  -24.6690   17.6520 C.3     1  <1>         0.0898
     10 C6         30.0540  -25.7190   18.7480 C.3     1  <1>         0.1610
     11 O3         29.6660  -25.1770   19.9970 O.3     1  <1>        -0.3323
     12 C7         29.1390  -26.8920   18.4510 C.3     1  <1>         0.2144
     13 O4         29.9300  -28.0250   18.1810 O.3     1  <1>        -0.2176
     14 C8         28.3280  -27.1020   19.7110 C.3     1  <1>         0.2337
     15 O5         28.5450  -28.4090   20.1820 O.3     1  <1>        -0.2155
     16 C9         28.8500  -26.0840   20.7150 C.3     1  <1>         0.2409
     17 N2         27.7330  -25.3720   21.3690 N.ar    1  <1>        -0.2693
     18 C10        27.3710  -24.0600   21.2010 C.ar    1  <1>         0.1816
     19 N3         26.2950  -23.7980   21.9760 N.ar    1  <1>        -0.2193
     20 C11        25.9640  -24.9260   22.6400 C.ar    1  <1>         0.1518
     21 C12        24.9590  -25.2150   23.5520 C.ar    1  <1>         0.1919
     22 N4         24.1000  -24.2660   23.9100 N.pl3   1  <1>        -0.1054
     23 N5         24.8590  -26.4850   24.0790 N.ar    1  <1>        -0.2040
     24 C13        25.7590  -27.4590   23.6960 C.ar    1  <1>         0.2016
     25 N6         26.7560  -27.1640   22.7890 N.ar    1  <1>        -0.2048
     26 C14        26.8580  -25.9190   22.2690 C.ar    1  <1>         0.1692
@<TRIPOS>BOND
     1     2     1    1
     2     2     3    1
     3     2     6    1
     4     3     4    1
     5     4     5    1
     6     5     9    1
     7     6     7   ar
     8     6     8   ar
     9    10     9    1
    10    10    11    1
    11    10    12    1
    12    11    16    1
    13    12    13    1
    14    12    14    1
    15    14    15    1
    16    14    16    1
    17    16    17    1
    18    17    18   ar
    19    17    26   ar
    20    18    19   ar
    21    19    20   ar
    22    20    21   ar
    23    20    26   ar
    24    21    22    1
    25    21    23   ar
    26    23    24   ar
    27    24    25   ar
    28    25    26   ar
