REMARK  7 active torsions:
REMARK  status: ('A' for Active; 'I' for Inactive)
REMARK    1  A    between atoms: C1_2  and  C2_3 
REMARK    2  A    between atoms: C1_2  and  C4_6 
REMARK    3  A    between atoms: C2_3  and  C3_4 
REMARK    4  A    between atoms: C3_4  and  S1_5 
REMARK    5  A    between atoms: S1_5  and  C5_9 
REMARK    6  A    between atoms: C6_10  and  C5_9 
REMARK    7  A    between atoms: C9_16  and  N2_17 
ROOT
ATOM      1  C6  <1> d          30.054 -25.719  18.748  0.00  0.00     0.161 C 
ATOM      2  O3  <1> d          29.666 -25.177  19.997  0.00  0.00    -0.333 OA
ATOM      3  C7  <1> d          29.139 -26.892  18.451  0.00  0.00     0.215 C 
ATOM      4  O4  <1> d          29.930 -28.025  18.181  0.00  0.00    -0.218 OA
ATOM      5  C8  <1> d          28.328 -27.102  19.711  0.00  0.00     0.234 C 
ATOM      6  O5  <1> d          28.545 -28.409  20.182  0.00  0.00    -0.216 OA
ATOM      7  C9  <1> d          28.850 -26.084  20.715  0.00  0.00     0.241 C 
ENDROOT
BRANCH   7   8
ATOM      8  N2  <1> d          27.733 -25.372  21.369  0.00  0.00    -0.270 N 
ATOM      9  C10 <1> d          27.371 -24.060  21.201  0.00  0.00     0.182 A 
ATOM     10  N3  <1> d          26.295 -23.798  21.976  0.00  0.00    -0.219 NA
ATOM     11  C11 <1> d          25.964 -24.926  22.640  0.00  0.00     0.155 A 
ATOM     12  C12 <1> d          24.959 -25.215  23.552  0.00  0.00     0.206 A 
ATOM     13  C14 <1> d          26.858 -25.919  22.269  0.00  0.00     0.170 A 
ATOM     14  N4  <1> d          24.100 -24.266  23.910  0.00  0.00    -0.125 N 
ATOM     15  N5  <1> d          24.859 -26.485  24.079  0.00  0.00    -0.202 NA
ATOM     16  C13 <1> d          25.759 -27.459  23.696  0.00  0.00     0.202 A 
ATOM     17  N6  <1> d          26.756 -27.164  22.789  0.00  0.00    -0.205 NA
ENDBRANCH   7   8
BRANCH   1  18
ATOM     18  C5  <1> d          29.965 -24.669  17.652  0.00  0.00     0.090 C 
BRANCH  18  19
ATOM     19  S1  <1> d          28.253 -24.281  17.220  0.00  0.00    -0.138 SA
BRANCH  19  20
ATOM     20  C3  <1> d          28.810 -23.764  15.581  0.00  0.00     0.060 C 
BRANCH  20  21
ATOM     21  C2  <1> d          29.519 -22.416  15.554  0.00  0.00     0.062 C 
BRANCH  21  22
ATOM     22  C1  <1> d          30.326 -22.222  14.279  0.00  0.00     0.388 C 
ATOM     23  N1  <1> d          29.447 -21.888  13.164  0.00  0.00     0.628 N 
BRANCH  22  24
ATOM     24  C4  <1> d          31.111 -23.493  13.983  0.00  0.00     0.224 C 
ATOM     25  O1  <1> d          32.086 -23.814  14.662  0.00  0.00    -0.646 OA
ATOM     26  O2  <1> d          30.785 -24.233  13.055  0.00  0.00    -0.646 OA
ENDBRANCH  22  24
ENDBRANCH  21  22
ENDBRANCH  20  21
ENDBRANCH  19  20
ENDBRANCH  18  19
ENDBRANCH   1  18
TORSDOF 7
