2EEU_HPA_A_90
 OpenBabel10091713573D
Coordinates from PDB:2EEU:A:90 Model:1 without hydrogens
 10 11  0  0  0  0  0  0  0  0999 V2000
   12.1830   11.2530    9.2200 N   0  0  0  0  0  0  0  0  0  0  0  0
   11.8210   12.5670    9.4390 C   0  0  0  0  0  0  0  0  0  0  0  0
   11.3250   13.3400    8.4650 N   0  0  0  0  0  0  0  0  0  0  0  0
   11.2250   12.6980    7.2670 C   0  0  0  0  0  0  0  0  0  0  0  0
   11.5710   11.3860    6.9810 C   0  0  0  0  0  0  0  0  0  0  0  0
   12.0960   10.5590    8.0110 C   0  0  0  0  0  0  0  0  0  0  0  0
   12.4620    9.3840    7.9800 O   0  0  0  0  0  0  0  0  0  0  0  0
   11.3100   11.1480    5.6530 N   0  0  0  0  0  0  0  0  0  0  0  0
   10.8130   12.3010    5.1470 C   0  0  0  0  0  0  0  0  0  0  0  0
   10.7490   13.2760    6.1150 N   0  0  0  0  0  0  0  0  0  0  0  0
  1  2  1  0  0  0  0
  1  6  1  0  0  0  0
  2  3  2  0  0  0  0
  3  4  1  0  0  0  0
  4  5  2  0  0  0  0
  4 10  1  0  0  0  0
  5  6  1  0  0  0  0
  5  8  1  0  0  0  0
  6  7  2  0  0  0  0
  8  9  1  0  0  0  0
  9 10  2  0  0  0  0
A    1
N1
A    2
C2
A    3
N3
A    4
C4
A    5
C5
A    6
C6
A    7
O6
A    8
N7
A    9
C8
A   10
N9
M  END
>  <InstanceId>
2EEU_HPA_A_90

>  <ChemCompId>
HPA

>  <PdbId>
2EEU

>  <ChainId>
A

>  <ResidueNumber>
90

>  <InsertionCode>


>  <Model>
1

>  <AltIds>


>  <MissingHeavyAtoms>
0

>  <ObservedFormula>
C5 N4 O

>  <Name>
HYPOXANTHINE

>  <SystematicName>
1,7-dihydropurin-6-one

>  <Synonyms>


>  <Type>
NON-POLYMER

>  <Formula>
C5 H4 N4 O

>  <MolecularWeight>
136.111

>  <ModifiedDate>
2011-06-04

>  <Parent>


>  <OneLetterCode>


>  <SubcomponentList>


>  <AmbiguousFlag>
N

>  <InChI>
InChI=1S/C5H4N4O/c10-5-3-4(7-1-6-3)8-2-9-5/h1-2H,(H2,6,7,8,9,10)

>  <InChIKey>
FDGQSTZJBFJUBT-UHFFFAOYSA-N

>  <SMILES>
c1[nH]c2c(n1)N=CNC2=O

$$$$
