@<TRIPOS>MOLECULE
2EEU_HPA_A_90
 10 11 0 0 0
SMALL
GASTEIGER
****
Coordinates from PDB:2EEU:A:90 Model:1 without hydrogens
@<TRIPOS>ATOM
      1 N          12.1830   11.2530    9.2200 N.ar    1  UNL1       -0.1841
      2 C          11.8210   12.5670    9.4390 C.ar    1  UNL1        0.2031
      3 N          11.3250   13.3400    8.4650 N.ar    1  UNL1       -0.2030
      4 C          11.2250   12.6980    7.2670 C.ar    1  UNL1        0.1881
      5 C          11.5710   11.3860    6.9810 C.ar    1  UNL1        0.1763
      6 C          12.0960   10.5590    8.0110 C.ar    1  UNL1        0.3014
      7 O          12.4620    9.3840    7.9800 O.2     1  UNL1       -0.2634
      8 N          11.3100   11.1480    5.6530 N.ar    1  UNL1       -0.2159
      9 C          10.8130   12.3010    5.1470 C.ar    1  UNL1        0.2005
     10 N          10.7490   13.2760    6.1150 N.ar    1  UNL1       -0.2031
@<TRIPOS>BOND
     1     1     2   ar
     2     1     6   ar
     3     2     3   ar
     4     3     4   ar
     5     4     5   ar
     6     4    10   ar
     7     5     6   ar
     8     5     8   ar
     9     6     7    2
    10     8     9   ar
    11     9    10   ar
