@<TRIPOS>MOLECULE
2PWT_LHA_A_51
 125 129 0 0 0
SMALL
GASTEIGER

@<TRIPOS>ATOM
      1 C           0.1239    8.4406    7.6015 C.3     1  UNL1        0.1776
      2 H           0.0652    7.4915    8.1428 H       1  UNL1        0.0927
      3 O           0.2336    8.1359    6.2025 O.3     1  UNL1       -0.3422
      4 C           1.4039    7.4316    5.7482 C.3     1  UNL1        0.1055
      5 H           1.2286    7.2792    4.6820 H       1  UNL1        0.0639
      6 C           1.5072    6.0034    6.3054 C.3     1  UNL1        0.0358
      7 H           1.7264    6.0281    7.3773 H       1  UNL1        0.0485
      8 C           2.6292    5.2850    5.5518 C.3     1  UNL1       -0.0143
      9 C           3.9951    5.9421    5.8063 C.3     1  UNL1        0.0531
     10 H           4.2713    5.8058    6.8584 H       1  UNL1        0.0525
     11 N           4.9945    5.1692    5.0341 N.am    1  UNL1       -0.3077
     12 C           6.2454    5.6004    4.6589 C.2     1  UNL1        0.2420
     13 O           6.7266    6.7030    4.9078 O.2     1  UNL1       -0.2730
     14 C           7.0414    4.5699    3.8414 C.3     1  UNL1        0.1320
     15 H           8.0224    4.9928    3.6071 H       1  UNL1        0.0690
     16 O           7.2327    3.4041    4.6439 O.3     1  UNL1       -0.3825
     17 C           6.3142    4.1753    2.5545 C.3     1  UNL1       -0.0059
     18 C           6.0053    5.3739    1.6572 C.3     1  UNL1       -0.0041
     19 N           5.2871    4.9350    0.4651 N.3     1  UNL1       -0.3299
     20 C           3.9876    7.4577    5.4606 C.3     1  UNL1        0.1022
     21 H           4.1719    7.5759    4.3911 H       1  UNL1        0.0639
     22 C           2.7200    8.2234    5.8904 C.3     1  UNL1        0.1169
     23 H           2.8821    8.3949    6.9560 H       1  UNL1        0.0650
     24 O           2.6218    9.5674    5.3514 O.3     1  UNL1       -0.3402
     25 C           2.7218    9.7643    3.9424 C.3     1  UNL1        0.1887
     26 H           3.6311    9.2982    3.5590 H       1  UNL1        0.0938
     27 O           2.9021   11.1722    3.7012 O.3     1  UNL1       -0.3405
     28 C           1.6514   11.7233    3.2648 C.3     1  UNL1        0.1135
     29 H           1.9043   12.5190    2.5582 H       1  UNL1        0.0647
     30 C           0.8414   10.6009    2.6273 C.3     1  UNL1        0.1208
     31 H          -0.2062   10.6310    2.9446 H       1  UNL1        0.0651
     32 C           1.4663    9.3219    3.1776 C.3     1  UNL1        0.1380
     33 H           0.7222    8.9068    3.8518 H       1  UNL1        0.0674
     34 O           1.8261    8.3137    2.2115 O.3     1  UNL1       -0.3676
     35 C           0.6896    7.6822    1.6166 C.3     1  UNL1        0.0608
     36 C           1.1285    6.7356    0.4883 C.3     1  UNL1        0.0194
     37 N          -0.0617    6.2056   -0.1938 N.3     1  UNL1       -0.3135
     38 C           0.2468    5.2725   -1.2831 C.3     1  UNL1       -0.0000
     39 C           0.8804    3.9624   -0.7992 C.3     1  UNL1       -0.0151
     40 C           1.0628    2.9629   -1.9152 C.ar    1  UNL1       -0.0462
     41 C           2.2181    2.9921   -2.7075 C.ar    1  UNL1       -0.0585
     42 C           2.4048    2.0493   -3.7187 C.ar    1  UNL1       -0.0615
     43 C           1.4370    1.0734   -3.9500 C.ar    1  UNL1       -0.0617
     44 C           0.2763    1.0468   -3.1786 C.ar    1  UNL1       -0.0615
     45 C           0.0864    1.9906   -2.1683 C.ar    1  UNL1       -0.0585
     46 O           0.8931   10.5871    1.2069 O.3     1  UNL1       -0.3410
     47 C           0.2246   11.6364    0.5298 C.3     1  UNL1        0.1776
     48 H           0.7943   12.5509    0.7199 H       1  UNL1        0.0927
     49 C          -1.2787   11.8669    0.8895 C.3     1  UNL1        0.0853
     50 H          -1.3689   12.1135    1.9521 H       1  UNL1        0.0535
     51 N          -2.1206   10.6673    0.6512 N.3     1  UNL1       -0.3211
     52 C          -1.7592   13.0835    0.0599 C.3     1  UNL1        0.1033
     53 H          -2.8393   13.1991    0.2125 H       1  UNL1        0.0637
     54 O          -1.1807   14.2900    0.5715 O.3     1  UNL1       -0.3874
     55 C          -1.4799   12.9048   -1.4469 C.3     1  UNL1        0.1100
     56 H          -1.6525   13.8535   -1.9669 H       1  UNL1        0.0646
     57 O          -2.3953   11.9434   -1.9941 O.3     1  UNL1       -0.3866
     58 C          -0.0206   12.4519   -1.6926 C.3     1  UNL1        0.1022
     59 H           0.6670   13.2709   -1.4435 H       1  UNL1        0.0636
     60 O           0.3197   11.3359   -0.8647 O.3     1  UNL1       -0.3425
     61 C           0.2544   12.0174   -3.1419 C.3     1  UNL1        0.0222
     62 N           0.0541   13.0905   -4.1147 N.3     1  UNL1       -0.3276
     63 C           0.9507   12.3420    4.4778 C.3     1  UNL1        0.0730
     64 O           1.7060   13.4657    4.9322 O.3     1  UNL1       -0.3924
     65 O           5.0716    8.1067    6.1564 O.3     1  UNL1       -0.3873
     66 N           0.2338    5.2761    6.1300 N.3     1  UNL1       -0.3250
     67 C          -1.2037    9.2441    7.8189 C.3     1  UNL1        0.0853
     68 H          -2.0445    8.5988    7.5391 H       1  UNL1        0.0535
     69 N          -1.2973   10.4517    6.9504 N.3     1  UNL1       -0.3211
     70 C          -1.3076    9.6299    9.3144 C.3     1  UNL1        0.1033
     71 H          -2.1632   10.3054    9.4330 H       1  UNL1        0.0637
     72 O          -1.6080    8.5133   10.1565 O.3     1  UNL1       -0.3874
     73 C          -0.0439   10.3596    9.8095 C.3     1  UNL1        0.1109
     74 H          -0.0861   10.5152   10.8928 H       1  UNL1        0.0646
     75 O           0.0444   11.6593    9.2006 O.3     1  UNL1       -0.3865
     76 C           1.2363    9.5932    9.4430 C.3     1  UNL1        0.1129
     77 H           2.0830   10.2890    9.5020 H       1  UNL1        0.0647
     78 O           1.2292    9.1930    8.0692 O.3     1  UNL1       -0.3415
     79 C           1.5580    8.4423   10.4130 C.3     1  UNL1        0.0730
     80 O           2.7381    7.7374   10.0310 O.3     1  UNL1       -0.3924
     81 H           2.4209    5.2981    4.4696 H       1  UNL1        0.0300
     82 H           2.6598    4.2253    5.8334 H       1  UNL1        0.0300
     83 H           4.8765    4.1625    5.0139 H       1  UNL1        0.1491
     84 H           7.7862    3.6806    5.3977 H       1  UNL1        0.2104
     85 H           5.3885    3.6371    2.7951 H       1  UNL1        0.0307
     86 H           6.9386    3.4527    2.0133 H       1  UNL1        0.0307
     87 H           6.9318    5.8786    1.3625 H       1  UNL1        0.0423
     88 H           5.3790    6.1038    2.1803 H       1  UNL1        0.0423
     89 H           5.8557    4.2719   -0.0601 H       1  UNL1        0.1182
     90 H           5.1360    5.7351   -0.1499 H       1  UNL1        0.1182
     91 H           0.0007    8.4263    1.2098 H       1  UNL1        0.0573
     92 H           0.1602    7.1134    2.3889 H       1  UNL1        0.0573
     93 H           1.7297    5.9346    0.9326 H       1  UNL1        0.0446
     94 H           1.7783    7.2682   -0.2175 H       1  UNL1        0.0446
     95 H          -0.5716    6.9994   -0.5885 H       1  UNL1        0.1220
     96 H           0.8735    5.7592   -2.0404 H       1  UNL1        0.0427
     97 H          -0.7037    5.0381   -1.7804 H       1  UNL1        0.0427
     98 H           0.2615    3.5155   -0.0104 H       1  UNL1        0.0325
     99 H           1.8603    4.1495   -0.3450 H       1  UNL1        0.0325
    100 H           2.9848    3.7429   -2.5293 H       1  UNL1        0.0620
    101 H           3.3094    2.0715   -4.3203 H       1  UNL1        0.0618
    102 H           1.5883    0.3322   -4.7299 H       1  UNL1        0.0618
    103 H          -0.4786    0.2861   -3.3587 H       1  UNL1        0.0618
    104 H          -0.8220    1.9563   -1.5709 H       1  UNL1        0.0620
    105 H          -2.0044   10.4032   -0.3352 H       1  UNL1        0.1187
    106 H          -3.1065   10.9038    0.7583 H       1  UNL1        0.1187
    107 H          -0.3094   14.4513    0.1695 H       1  UNL1        0.2100
    108 H          -3.2983   12.2256   -1.7647 H       1  UNL1        0.2100
    109 H          -0.3659   11.1503   -3.4060 H       1  UNL1        0.0448
    110 H           1.2908   11.6647   -3.2120 H       1  UNL1        0.0448
    111 H          -0.9386   13.3263   -4.1417 H       1  UNL1        0.1183
    112 H           0.2602   12.7173   -5.0430 H       1  UNL1        0.1183
    113 H           0.8725   11.6396    5.3126 H       1  UNL1        0.0584
    114 H          -0.0471   12.7009    4.2184 H       1  UNL1        0.0584
    115 H           2.6097   13.1244    5.0797 H       1  UNL1        0.2095
    116 H           5.9018    7.7697    5.7566 H       1  UNL1        0.2100
    117 H          -0.5326    5.9490    6.2257 H       1  UNL1        0.1185
    118 H           0.1483    4.9427    5.1678 H       1  UNL1        0.1185
    119 H          -0.4447   11.0038    7.1124 H       1  UNL1        0.1187
    120 H          -2.0734   11.0419    7.2432 H       1  UNL1        0.1187
    121 H          -1.2429    7.6915    9.7870 H       1  UNL1        0.2100
    122 H          -0.8051   12.1167    9.3197 H       1  UNL1        0.2100
    123 H           1.7140    8.8377   11.4235 H       1  UNL1        0.0584
    124 H           0.7629    7.6989   10.4659 H       1  UNL1        0.0584
    125 H           3.4358    8.3949    9.8530 H       1  UNL1        0.2095
@<TRIPOS>BOND
     1     1    67    1
     2     1    78    1
     3     1     3    1
     4     1     2    1
     5     4     6    1
     6     4     5    1
     7     4     3    1
     8     6     7    1
     9     6     8    1
    10     6    66    1
    11     8     9    1
    12     8    81    1
    13     8    82    1
    14     9    20    1
    15     9    11    1
    16     9    10    1
    17    11    12   am
    18    11    83    1
    19    12    13    2
    20    12    14    1
    21    14    15    1
    22    14    16    1
    23    14    17    1
    24    16    84    1
    25    17    18    1
    26    17    85    1
    27    17    86    1
    28    18    19    1
    29    18    87    1
    30    18    88    1
    31    19    89    1
    32    19    90    1
    33    20    21    1
    34    20    22    1
    35    20    65    1
    36    22     4    1
    37    22    24    1
    38    22    23    1
    39    25    27    1
    40    25    32    1
    41    25    26    1
    42    25    24    1
    43    27    28    1
    44    28    29    1
    45    28    30    1
    46    28    63    1
    47    30    32    1
    48    30    46    1
    49    30    31    1
    50    32    34    1
    51    32    33    1
    52    34    35    1
    53    35    36    1
    54    35    91    1
    55    35    92    1
    56    36    37    1
    57    36    93    1
    58    36    94    1
    59    37    38    1
    60    37    95    1
    61    38    39    1
    62    38    96    1
    63    38    97    1
    64    39    40    1
    65    39    98    1
    66    39    99    1
    67    40    41   ar
    68    40    45   ar
    69    41    42   ar
    70    41   100    1
    71    42    43   ar
    72    42   101    1
    73    43    44   ar
    74    43   102    1
    75    44    45   ar
    76    44   103    1
    77    45   104    1
    78    47    49    1
    79    47    60    1
    80    47    48    1
    81    47    46    1
    82    49    52    1
    83    49    51    1
    84    49    50    1
    85    51   105    1
    86    51   106    1
    87    52    55    1
    88    52    54    1
    89    52    53    1
    90    54   107    1
    91    55    56    1
    92    55    57    1
    93    55    58    1
    94    57   108    1
    95    58    59    1
    96    58    60    1
    97    58    61    1
    98    61    62    1
    99    61   109    1
   100    61   110    1
   101    62   111    1
   102    62   112    1
   103    63    64    1
   104    63   113    1
   105    63   114    1
   106    64   115    1
   107    65   116    1
   108    66   117    1
   109    66   118    1
   110    67    70    1
   111    67    69    1
   112    67    68    1
   113    69   119    1
   114    69   120    1
   115    70    73    1
   116    70    72    1
   117    70    71    1
   118    72   121    1
   119    73    74    1
   120    73    75    1
   121    73    76    1
   122    75   122    1
   123    76    78    1
   124    76    79    1
   125    76    77    1
   126    79    80    1
   127    79   123    1
   128    79   124    1
   129    80   125    1
