REMARK WARNING: 32 MAX_TORS EXCEEDED!!!
REMARK  33 active torsions:
REMARK  status: ('A' for Active; 'I' for Inactive)
REMARK    1  A    between atoms: C_1  and  O_2 
REMARK    2  A    between atoms: C_3  and  O_2 
REMARK    3  A    between atoms: C_4  and  N_50 
REMARK    4  A    between atoms: C_6  and  N_7 
REMARK       I    between atoms: N_7  and  C_8 
REMARK    5  A    between atoms: C_8  and  C_10 
REMARK    6  A    between atoms: C_10  and  O_11 
REMARK    7  A    between atoms: C_10  and  C_12 
REMARK    8  A    between atoms: C_12  and  C_13 
REMARK    9  A    between atoms: C_13  and  N_14 
REMARK   10  A    between atoms: C_15  and  O_49 
REMARK   11  A    between atoms: C_16  and  O_17 
REMARK   12  A    between atoms: C_18  and  O_17 
REMARK   13  A    between atoms: C_20  and  C_47 
REMARK   14  A    between atoms: C_21  and  O_35 
REMARK   15  A    between atoms: C_22  and  O_23 
REMARK   16  A    between atoms: O_23  and  C_24 
REMARK   17  A    between atoms: C_24  and  C_25 
REMARK   18  A    between atoms: C_25  and  N_26 
REMARK   19  A    between atoms: N_26  and  C_27 
REMARK   20  A    between atoms: C_27  and  C_28 
REMARK   21  A    between atoms: C_28  and  C_29 
REMARK   22  A    between atoms: C_36  and  O_35 
REMARK   23  A    between atoms: C_37  and  N_38 
REMARK   24  A    between atoms: C_39  and  O_40 
REMARK   25  A    between atoms: C_41  and  O_42 
REMARK   26  A    between atoms: C_43  and  C_45 
REMARK   27  A    between atoms: C_45  and  N_46 
REMARK   28  A    between atoms: C_47  and  O_48 
REMARK   29  A    between atoms: C_51  and  N_52 
REMARK   30  A    between atoms: C_53  and  O_54 
REMARK   31  A    between atoms: C_55  and  O_56 
REMARK   32  A    between atoms: C_57  and  C_59 
REMARK   33  A    between atoms: C_59  and  O_60 
ROOT
ATOM      1  C   UNL d   1       1.404   7.432   5.748  0.00  0.00     0.189 C 
ATOM      2  C   UNL d   1       1.507   6.003   6.305  0.00  0.00     0.251 C 
ATOM      3  C   UNL d   1       2.629   5.285   5.552  0.00  0.00     0.066 C 
ATOM      4  C   UNL d   1       3.995   5.942   5.806  0.00  0.00     0.118 C 
ATOM      5  C   UNL d   1       3.988   7.458   5.461  0.00  0.00     0.172 C 
ATOM      6  C   UNL d   1       2.720   8.223   5.890  0.00  0.00     0.186 C 
ENDROOT
BRANCH   6   7
ATOM      7  O   UNL d   1       2.622   9.567   5.351  0.00  0.00    -0.348 OA
BRANCH   7   8
ATOM      8  C   UNL d   1       2.722   9.764   3.942  0.00  0.00     0.292 C 
ATOM      9  O   UNL d   1       2.902  11.172   3.701  0.00  0.00    -0.348 OA
ATOM     10  C   UNL d   1       1.651  11.723   3.265  0.00  0.00     0.180 C 
ATOM     11  C   UNL d   1       0.841  10.601   2.627  0.00  0.00     0.189 C 
ATOM     12  C   UNL d   1       1.466   9.322   3.178  0.00  0.00     0.208 C 
BRANCH  10  13
ATOM     13  C   UNL d   1       0.951  12.342   4.478  0.00  0.00     0.198 C 
BRANCH  13  14
ATOM     14  O   UNL d   1       1.706  13.466   4.932  0.00  0.00    -0.398 OA
ATOM     15  H   UNL d   1       2.610  13.124   5.080  0.00  0.00     0.209 HD
ENDBRANCH  13  14
ENDBRANCH  10  13
BRANCH  11  16
ATOM     16  O   UNL d   1       0.893  10.587   1.207  0.00  0.00    -0.348 OA
BRANCH  16  17
ATOM     17  C   UNL d   1       0.225  11.636   0.530  0.00  0.00     0.296 C 
ATOM     18  C   UNL d   1      -1.279  11.867   0.889  0.00  0.00     0.303 C 
ATOM     19  C   UNL d   1      -1.759  13.084   0.060  0.00  0.00     0.187 C 
ATOM     20  C   UNL d   1      -1.480  12.905  -1.447  0.00  0.00     0.179 C 
ATOM     21  C   UNL d   1      -0.021  12.452  -1.693  0.00  0.00     0.183 C 
ATOM     22  O   UNL d   1       0.320  11.336  -0.865  0.00  0.00    -0.349 OA
BRANCH  18  23
ATOM     23  N   UNL d   1      -2.121  10.667   0.651  0.00  0.00     0.090 N 
ATOM     24  H   UNL d   1      -2.004  10.403  -0.335  0.00  0.00     0.313 HD
ATOM     25  H   UNL d   1      -3.107  10.904   0.758  0.00  0.00     0.313 HD
ENDBRANCH  18  23
BRANCH  19  26
ATOM     26  O   UNL d   1      -1.181  14.290   0.572  0.00  0.00    -0.391 OA
ATOM     27  H   UNL d   1      -0.309  14.451   0.170  0.00  0.00     0.210 HD
ENDBRANCH  19  26
BRANCH  20  28
ATOM     28  O   UNL d   1      -2.395  11.943  -1.994  0.00  0.00    -0.390 OA
ATOM     29  H   UNL d   1      -3.298  12.226  -1.765  0.00  0.00     0.210 HD
ENDBRANCH  20  28
BRANCH  21  30
ATOM     30  C   UNL d   1       0.254  12.017  -3.142  0.00  0.00     0.301 C 
BRANCH  30  31
ATOM     31  N   UNL d   1       0.054  13.091  -4.115  0.00  0.00     0.080 N 
ATOM     32  H   UNL d   1      -0.939  13.326  -4.142  0.00  0.00     0.312 HD
ATOM     33  H   UNL d   1       0.260  12.717  -5.043  0.00  0.00     0.312 HD
ENDBRANCH  30  31
ENDBRANCH  21  30
ENDBRANCH  16  17
ENDBRANCH  11  16
BRANCH  12  34
ATOM     34  O   UNL d   1       1.826   8.314   2.212  0.00  0.00    -0.377 OA
BRANCH  34  35
ATOM     35  C   UNL d   1       0.690   7.682   1.617  0.00  0.00     0.198 C 
BRANCH  35  36
ATOM     36  C   UNL d   1       1.129   6.736   0.488  0.00  0.00     0.295 C 
BRANCH  36  37
ATOM     37  N   UNL d   1      -0.062   6.206  -0.194  0.00  0.00     0.085 N 
ATOM     38  H   UNL d   1      -0.572   6.999  -0.589  0.00  0.00     0.315 HD
BRANCH  37  39
ATOM     39  C   UNL d   1       0.247   5.272  -1.283  0.00  0.00     0.274 C 
BRANCH  39  40
ATOM     40  C   UNL d   1       0.880   3.962  -0.799  0.00  0.00     0.068 C 
BRANCH  40  41
ATOM     41  C   UNL d   1       1.063   2.963  -1.915  0.00  0.00    -0.057 A 
ATOM     42  C   UNL d   1       2.218   2.992  -2.708  0.00  0.00     0.007 A 
ATOM     43  C   UNL d   1       2.405   2.049  -3.719  0.00  0.00     0.001 A 
ATOM     44  C   UNL d   1       1.437   1.073  -3.950  0.00  0.00     0.000 A 
ATOM     45  C   UNL d   1       0.276   1.047  -3.179  0.00  0.00     0.001 A 
ATOM     46  C   UNL d   1       0.086   1.991  -2.168  0.00  0.00     0.007 A 
ENDBRANCH  40  41
ENDBRANCH  39  40
ENDBRANCH  37  39
ENDBRANCH  36  37
ENDBRANCH  35  36
ENDBRANCH  34  35
ENDBRANCH  12  34
ENDBRANCH   7   8
ENDBRANCH   6   7
BRANCH   5  47
ATOM     47  O   UNL d   1       5.072   8.107   6.156  0.00  0.00    -0.391 OA
ATOM     48  H   UNL d   1       5.902   7.770   5.757  0.00  0.00     0.210 HD
ENDBRANCH   5  47
BRANCH   1  49
ATOM     49  O   UNL d   1       0.234   8.136   6.202  0.00  0.00    -0.349 OA
BRANCH  49  50
ATOM     50  C   UNL d   1       0.124   8.441   7.601  0.00  0.00     0.296 C 
ATOM     51  C   UNL d   1      -1.204   9.244   7.819  0.00  0.00     0.303 C 
ATOM     52  C   UNL d   1      -1.308   9.630   9.314  0.00  0.00     0.187 C 
ATOM     53  C   UNL d   1      -0.044  10.360   9.809  0.00  0.00     0.180 C 
ATOM     54  C   UNL d   1       1.236   9.593   9.443  0.00  0.00     0.179 C 
ATOM     55  O   UNL d   1       1.229   9.193   8.069  0.00  0.00    -0.349 OA
BRANCH  51  56
ATOM     56  N   UNL d   1      -1.297  10.452   6.950  0.00  0.00     0.090 N 
ATOM     57  H   UNL d   1      -0.445  11.004   7.112  0.00  0.00     0.313 HD
ATOM     58  H   UNL d   1      -2.073  11.042   7.243  0.00  0.00     0.313 HD
ENDBRANCH  51  56
BRANCH  52  59
ATOM     59  O   UNL d   1      -1.608   8.513  10.156  0.00  0.00    -0.391 OA
ATOM     60  H   UNL d   1      -1.243   7.691   9.787  0.00  0.00     0.210 HD
ENDBRANCH  52  59
BRANCH  53  61
ATOM     61  O   UNL d   1       0.044  11.659   9.201  0.00  0.00    -0.390 OA
ATOM     62  H   UNL d   1      -0.805  12.117   9.320  0.00  0.00     0.210 HD
ENDBRANCH  53  61
BRANCH  54  63
ATOM     63  C   UNL d   1       1.558   8.442  10.413  0.00  0.00     0.198 C 
BRANCH  63  64
ATOM     64  O   UNL d   1       2.738   7.737  10.031  0.00  0.00    -0.398 OA
ATOM     65  H   UNL d   1       3.436   8.395   9.853  0.00  0.00     0.209 HD
ENDBRANCH  63  64
ENDBRANCH  54  63
ENDBRANCH  49  50
ENDBRANCH   1  49
BRANCH   4  66
ATOM     66  N   UNL d   1       4.995   5.169   5.034  0.00  0.00    -0.352 N 
ATOM     67  C   UNL d   1       6.245   5.600   4.659  0.00  0.00     0.246 C 
ATOM     68  O   UNL d   1       6.727   6.703   4.908  0.00  0.00    -0.271 OA
ATOM     69  H   UNL d   1       4.877   4.162   5.014  0.00  0.00     0.163 HD
BRANCH  67  70
ATOM     70  C   UNL d   1       7.041   4.570   3.841  0.00  0.00     0.211 C 
BRANCH  70  71
ATOM     71  O   UNL d   1       7.233   3.404   4.644  0.00  0.00    -0.386 OA
ATOM     72  H   UNL d   1       7.786   3.681   5.398  0.00  0.00     0.210 HD
ENDBRANCH  70  71
BRANCH  70  73
ATOM     73  C   UNL d   1       6.314   4.175   2.554  0.00  0.00     0.071 C 
BRANCH  73  74
ATOM     74  C   UNL d   1       6.005   5.374   1.657  0.00  0.00     0.269 C 
BRANCH  74  75
ATOM     75  N   UNL d   1       5.287   4.935   0.465  0.00  0.00     0.078 N 
ATOM     76  H   UNL d   1       5.856   4.272  -0.060  0.00  0.00     0.312 HD
ATOM     77  H   UNL d   1       5.136   5.735  -0.150  0.00  0.00     0.312 HD
ENDBRANCH  74  75
ENDBRANCH  73  74
ENDBRANCH  70  73
ENDBRANCH  67  70
ENDBRANCH   4  66
BRANCH   2  78
ATOM     78  N   UNL d   1       0.234   5.276   6.130  0.00  0.00     0.085 N 
ATOM     79  H   UNL d   1      -0.533   5.949   6.226  0.00  0.00     0.313 HD
ATOM     80  H   UNL d   1       0.148   4.943   5.168  0.00  0.00     0.313 HD
ENDBRANCH   2  78
TORSDOF 33
