REMARK  8 active torsions:
REMARK  status: ('A' for Active; 'I' for Inactive)
REMARK    1  A    between atoms: CA_2  and  N_1 
REMARK    2  A    between atoms: C_3  and  CA_2 
REMARK    3  A    between atoms: CB_6  and  CA_2 
REMARK    4  A    between atoms: OXT_5  and  C_3 
REMARK    5  A    between atoms: CG_7  and  CB_6 
REMARK    6  A    between atoms: CD_8  and  CG_7 
REMARK    7  A    between atoms: CE_9  and  CD_8 
REMARK    8  A    between atoms: NZ_10  and  CE_9 
ROOT
ATOM      1  CA  LYS d   1      -1.710   0.141  -0.385  0.00  0.00     0.314 C 
ENDROOT
BRANCH   1   2
ATOM      2  N   LYS d   1      -2.695   1.160  -0.029  0.00  0.00     0.093 N 
ATOM      3  H1  LYS d   1      -3.328   1.347  -0.804  0.00  0.00     0.314 HD
ATOM      4  H2  LYS d   1      -2.235   2.041   0.193  0.00  0.00     0.314 HD
ENDBRANCH   1   2
BRANCH   1   5
ATOM      5  C   LYS d   1      -1.382   0.302  -1.855  0.00  0.00     0.173 C 
ATOM      6  O   LYS d   1      -2.077   0.858  -2.693  0.00  0.00    -0.648 OA
BRANCH   5   7
ATOM      7  OXT LYS d   1      -0.180  -0.256  -2.140  0.00  0.00    -0.775 OA
ATOM      8  HXT LYS d   1      -0.125  -1.193  -1.856  0.00  0.00     0.167 HD
ENDBRANCH   5   7
ENDBRANCH   1   5
BRANCH   1   9
ATOM      9  CB  LYS d   1      -2.257  -1.265  -0.097  0.00  0.00     0.046 C 
BRANCH   9  10
ATOM     10  CG  LYS d   1      -2.025  -1.706   1.355  0.00  0.00     0.004 C 
BRANCH  10  11
ATOM     11  CD  LYS d   1      -3.030  -1.089   2.329  0.00  0.00     0.030 C 
BRANCH  11  12
ATOM     12  CE  LYS d   1      -2.598  -1.242   3.784  0.00  0.00     0.267 C 
BRANCH  12  13
ATOM     13  NZ  LYS d   1      -3.067  -2.507   4.331  0.00  0.00     0.078 N 
ATOM     14  HZ1 LYS d   1      -3.247  -2.397   5.328  0.00  0.00     0.312 HD
ATOM     15  HZ2 LYS d   1      -2.328  -3.204   4.254  0.00  0.00     0.312 HD
ENDBRANCH  12  13
ENDBRANCH  11  12
ENDBRANCH  10  11
ENDBRANCH   9  10
ENDBRANCH   1   9
TORSDOF 8
