2GUN_SPM_B_521
 OpenBabel10091713573D
Coordinates from PDB:2GUN:B:521 Model:1 without hydrogens
 14 13  0  0  0  0  0  0  0  0999 V2000
   12.3400   12.5940  -13.1040 N   0  0  0  0  0  0  0  0  0  0  0  0
   13.2080   11.3850  -13.0030 C   0  0  0  0  0  0  0  0  0  0  0  0
   14.3900   11.4790  -13.9520 C   0  0  0  0  0  0  0  0  0  0  0  0
   15.1790   12.7660  -13.7170 C   0  0  0  0  0  0  0  0  0  0  0  0
   16.2680   12.9350  -14.6890 N   0  0  0  0  0  0  0  0  0  0  0  0
   17.2690   13.8980  -14.2230 C   0  0  0  0  0  0  0  0  0  0  0  0
   16.7010   15.2970  -14.0080 C   0  0  0  0  0  0  0  0  0  0  0  0
   16.0840   15.8530  -15.2780 C   0  0  0  0  0  0  0  0  0  0  0  0
   15.6900   17.3170  -15.1110 C   0  0  0  0  0  0  0  0  0  0  0  0
   15.2480   17.9000  -16.3740 N   0  0  0  0  0  0  0  0  0  0  0  0
   15.5040   19.3410  -16.4050 C   0  0  0  0  0  0  0  0  0  0  0  0
   17.0020   19.6820  -16.3610 C   0  0  0  0  0  0  0  0  0  0  0  0
   17.2480   21.1710  -16.6510 C   0  0  0  0  0  0  0  0  0  0  0  0
   18.6940   21.5380  -16.6280 N   0  0  0  0  0  0  0  0  0  0  0  0
  1  2  1  0  0  0  0
  2  3  1  0  0  0  0
  3  4  1  0  0  0  0
  4  5  1  0  0  0  0
  5  6  1  0  0  0  0
  6  7  1  0  0  0  0
  7  8  1  0  0  0  0
  8  9  1  0  0  0  0
  9 10  1  0  0  0  0
 10 11  1  0  0  0  0
 11 12  1  0  0  0  0
 12 13  1  0  0  0  0
 13 14  1  0  0  0  0
A    1
N1
A    2
C2
A    3
C3
A    4
C4
A    5
N5
A    6
C6
A    7
C7
A    8
C8
A    9
C9
A   10
N10
A   11
C11
A   12
C12
A   13
C13
A   14
N14
M  END
>  <InstanceId>
2GUN_SPM_B_521

>  <ChemCompId>
SPM

>  <PdbId>
2GUN

>  <ChainId>
B

>  <ResidueNumber>
521

>  <InsertionCode>


>  <Model>
1

>  <AltIds>


>  <MissingHeavyAtoms>
0

>  <ObservedFormula>
C10 N4

>  <Name>
SPERMINE

>  <SystematicName>
N,N'-bis(3-aminopropyl)butane-1,4-diamine

>  <Synonyms>


>  <Type>
NON-POLYMER

>  <Formula>
C10 H26 N4

>  <MolecularWeight>
202.34

>  <ModifiedDate>
2011-06-04

>  <Parent>


>  <OneLetterCode>


>  <SubcomponentList>


>  <AmbiguousFlag>
N

>  <InChI>
InChI=1S/C10H26N4/c11-5-3-9-13-7-1-2-8-14-10-4-6-12/h13-14H,1-12H2

>  <InChIKey>
PFNFFQXMRSDOHW-UHFFFAOYSA-N

>  <SMILES>
C(CCNCCCN)CNCCCN

$$$$
