@<TRIPOS>MOLECULE
2GUN_SPM_B_521
 14 13 0 0 0
SMALL
GASTEIGER
****
Coordinates from PDB:2GUN:B:521 Model:1 without hydrogens
@<TRIPOS>ATOM
      1 N          12.3400   12.5940  -13.1040 N.3     1  UNL1       -0.1313
      2 C          13.2080   11.3850  -13.0030 C.3     1  UNL1        0.1108
      3 C          14.3900   11.4790  -13.9520 C.3     1  UNL1        0.0393
      4 C          15.1790   12.7660  -13.7170 C.3     1  UNL1        0.0902
      5 N          16.2680   12.9350  -14.6890 N.3     1  UNL1       -0.2180
      6 C          17.2690   13.8980  -14.2230 C.3     1  UNL1        0.0887
      7 C          16.7010   15.2970  -14.0080 C.3     1  UNL1        0.0203
      8 C          16.0840   15.8530  -15.2780 C.3     1  UNL1        0.0203
      9 C          15.6900   17.3170  -15.1110 C.3     1  UNL1        0.0887
     10 N          15.2480   17.9000  -16.3740 N.3     1  UNL1       -0.2180
     11 C          15.5040   19.3410  -16.4050 C.3     1  UNL1        0.0902
     12 C          17.0020   19.6820  -16.3610 C.3     1  UNL1        0.0393
     13 C          17.2480   21.1710  -16.6510 C.3     1  UNL1        0.1108
     14 N          18.6940   21.5380  -16.6280 N.3     1  UNL1       -0.1313
@<TRIPOS>BOND
     1     1     2    1
     2     2     3    1
     3     3     4    1
     4     4     5    1
     5     5     6    1
     6     6     7    1
     7     7     8    1
     8     8     9    1
     9     9    10    1
    10    10    11    1
    11    11    12    1
    12    12    13    1
    13    13    14    1
