2KU0_ISI_A_39
 OpenBabel10091713583D
Coordinates from PDB:2KU0:A:39 Model:1 without hydrogens
 23 25  0  0  0  0  0  0  0  0999 V2000
    5.5820   -8.8480    4.5750 C   0  0  0  0  0  0  0  0  0  0  0  0
    0.7510   -5.6120    5.3620 N   0  0  0  0  0  0  0  0  0  0  0  0
    4.1860   -8.8340    4.6410 C   0  0  0  0  0  0  0  0  0  0  0  0
    2.6900   -1.0070    2.9890 N   0  0  0  0  0  0  0  0  0  0  0  0
    3.5320   -7.6260    4.8760 C   0  0  0  0  0  0  0  0  0  0  0  0
   10.3310   -6.7110    5.4320 N   0  0  0  0  0  0  0  0  0  0  0  0
    4.2190   -6.4490    5.0360 C   0  0  0  0  0  0  0  0  0  0  0  0
    5.6160   -6.4590    4.9950 C   0  0  0  0  0  0  0  0  0  0  0  0
    6.2680   -7.6500    4.7450 C   0  0  0  0  0  0  0  0  0  0  0  0
    2.2180   -7.4490    4.9890 N   0  0  0  0  0  0  0  0  0  0  0  0
    2.0990   -6.1300    5.2270 C   0  0  0  0  0  0  0  0  0  0  0  0
    3.3200   -5.4620    5.2380 N   0  0  0  0  0  0  0  0  0  0  0  0
    6.6480   -5.3950    5.2390 C   0  0  0  0  0  0  0  0  0  0  0  0
    7.9660   -6.0960    4.7890 C   0  0  2  0  0  0  0  0  0  0  0  0
    7.6280   -7.5080    4.7040 O   0  0  0  0  0  0  0  0  0  0  0  0
    3.5240   -4.0070    5.3040 C   0  0  0  0  0  0  0  0  0  0  0  0
    9.1000   -5.9100    5.8060 C   0  0  0  0  0  0  0  0  0  0  0  0
    3.2580   -3.2820    3.9610 C   0  0  0  0  0  0  0  0  0  0  0  0
    2.5190    0.4460    3.3580 C   0  0  0  0  0  0  0  0  0  0  0  0
    3.6300   -1.0970    1.8070 C   0  0  0  0  0  0  0  0  0  0  0  0
    3.2540   -1.7490    4.1840 C   0  0  0  0  0  0  0  0  0  0  0  0
   11.0670   -5.9050    4.3910 C   0  0  0  0  0  0  0  0  0  0  0  0
   11.2210   -6.7640    6.6390 C   0  0  0  0  0  0  0  0  0  0  0  0
  1  3  2  0  0  0  0
  1  9  1  0  0  0  0
  3  5  1  0  0  0  0
  4 19  1  0  0  0  0
  4 21  1  0  0  0  0
  5 10  1  0  0  0  0
  5  7  2  0  0  0  0
  6 17  1  0  0  0  0
  6 23  1  0  0  0  0
  7 12  1  0  0  0  0
  8  7  1  0  0  0  0
  8 13  1  0  0  0  0
  9  8  2  0  0  0  0
 10 11  2  0  0  0  0
 11  2  1  0  0  0  0
 11 12  1  0  0  0  0
 12 16  1  0  0  0  0
 14 13  1  0  0  0  0
 14 17  1  1  0  0  0
 15  9  1  0  0  0  0
 15 14  1  0  0  0  0
 18 16  1  0  0  0  0
 18 21  1  0  0  0  0
 20  4  1  0  0  0  0
 22  6  1  0  0  0  0
A    1
C1
A    2
NP1
A    3
C2
A    4
NP2
A    5
C3
A    6
NP3
A    7
C4
A    8
C5
A    9
C6
A   10
N7
A   11
C8
A   12
N9
A   13
C10
A   14
C11
A   15
O12
A   16
CA1
A   17
CA2
A   18
CB1
A   19
CD1
A   20
CE1
A   21
CG1
A   22
CG2
A   23
CG3
M  END
>  <InstanceId>
2KU0_ISI_A_39

>  <ChemCompId>
ISI

>  <PdbId>
2KU0

>  <ChainId>
A

>  <ResidueNumber>
39

>  <InsertionCode>


>  <Model>
1

>  <AltIds>


>  <MissingHeavyAtoms>
0

>  <ObservedFormula>
C17 N5 O

>  <Name>
(7S)-7-[(dimethylamino)methyl]-1-[3-(dimethylamino)propyl]-7,8-dihydro-1H-furo[3,2-e]benzimidazol-2-amine

>  <SystematicName>
(7S)-7-(dimethylaminomethyl)-1-[3-(dimethylamino)propyl]-7,8-dihydrofuro[3,2-e]benzimidazol-2-amine

>  <Synonyms>


>  <Type>
NON-POLYMER

>  <Formula>
C17 H27 N5 O

>  <MolecularWeight>
317.429

>  <ModifiedDate>
2011-06-04

>  <Parent>


>  <OneLetterCode>


>  <SubcomponentList>


>  <AmbiguousFlag>
N

>  <InChI>
InChI=1S/C17H27N5O/c1-20(2)8-5-9-22-16-13-10-12(11-21(3)4)23-15(13)7-6-14(16)19-17(22)18/h6-7,12H,5,8-11H2,1-4H3,(H2,18,19)/t12-/m0/s1

>  <InChIKey>
PFHMRNGLRJXGSW-LBPRGKRZSA-N

>  <SMILES>
CN(C)CCCn1c2c(ccc3c2C[C@H](O3)CN(C)C)nc1N

$$$$
