REMARK  6 active torsions:
REMARK  status: ('A' for Active; 'I' for Inactive)
REMARK    1  A    between atoms: N_4  and  C_21 
REMARK    2  A    between atoms: N_6  and  C_17 
REMARK    3  A    between atoms: N_12  and  C_16 
REMARK    4  A    between atoms: C_14  and  C_17 
REMARK    5  A    between atoms: C_18  and  C_16 
REMARK    6  A    between atoms: C_18  and  C_21 
ROOT
ATOM      1  C   UNL d   1       5.582  -8.848   4.575  0.00  0.00     0.025 A 
ATOM      2  N   UNL d   1       0.751  -5.612   5.362  0.00  0.00    -0.061 NA
ATOM      3  C   UNL d   1       4.186  -8.834   4.641  0.00  0.00     0.023 A 
ATOM      4  C   UNL d   1       3.532  -7.626   4.876  0.00  0.00     0.100 A 
ATOM      5  C   UNL d   1       4.219  -6.449   5.036  0.00  0.00     0.078 A 
ATOM      6  C   UNL d   1       5.616  -6.459   4.995  0.00  0.00     0.020 A 
ATOM      7  C   UNL d   1       6.268  -7.650   4.745  0.00  0.00     0.092 A 
ATOM      8  N   UNL d   1       2.218  -7.449   4.989  0.00  0.00    -0.214 NA
ATOM      9  C   UNL d   1       2.099  -6.130   5.227  0.00  0.00     0.219 A 
ATOM     10  N   UNL d   1       3.320  -5.462   5.238  0.00  0.00    -0.301 N 
ATOM     11  C   UNL d   1       6.648  -5.395   5.239  0.00  0.00     0.062 C 
ATOM     12  C   UNL d   1       7.966  -6.096   4.789  0.00  0.00     0.159 C 
ATOM     13  O   UNL d   1       7.628  -7.508   4.704  0.00  0.00    -0.331 OA
ENDROOT
BRANCH  10  14
ATOM     14  C   UNL d   1       3.524  -4.007   5.304  0.00  0.00     0.111 C 
BRANCH  14  15
ATOM     15  C   UNL d   1       3.258  -3.282   3.961  0.00  0.00     0.060 C 
BRANCH  15  16
ATOM     16  C   UNL d   1       3.254  -1.749   4.184  0.00  0.00     0.252 C 
BRANCH  16  17
ATOM     17  N   UNL d   1       2.690  -1.007   2.989  0.00  0.00     0.141 N 
ATOM     18  C   UNL d   1       2.519   0.446   3.358  0.00  0.00     0.285 C 
ATOM     19  C   UNL d   1       3.630  -1.097   1.807  0.00  0.00     0.285 C 
ENDBRANCH  16  17
ENDBRANCH  15  16
ENDBRANCH  14  15
ENDBRANCH  10  14
BRANCH  12  20
ATOM     20  C   UNL d   1       9.100  -5.910   5.806  0.00  0.00     0.281 C 
BRANCH  20  21
ATOM     21  N   UNL d   1      10.331  -6.711   5.432  0.00  0.00     0.144 N 
ATOM     22  C   UNL d   1      11.221  -6.764   6.639  0.00  0.00     0.286 C 
ATOM     23  C   UNL d   1      11.067  -5.905   4.391  0.00  0.00     0.286 C 
ENDBRANCH  20  21
ENDBRANCH  12  20
TORSDOF 6
