@<TRIPOS>MOLECULE
2KU0_ISI_A_39
 23 25 0 0 0
SMALL
GASTEIGER
****
Coordinates from PDB:2KU0:A:39 Model:1 without hydrogens
@<TRIPOS>ATOM
      1 C           5.5820   -8.8480    4.5750 C.ar    1  UNL1        0.0382
      2 N           0.7510   -5.6120    5.3620 N.pl3   1  UNL1       -0.0878
      3 C           4.1860   -8.8340    4.6410 C.ar    1  UNL1        0.0238
      4 N           2.6900   -1.0070    2.9890 N.3     1  UNL1       -0.2703
      5 C           3.5320   -7.6260    4.8760 C.ar    1  UNL1        0.0999
      6 N          10.3310   -6.7110    5.4320 N.3     1  UNL1       -0.2673
      7 C           4.2190   -6.4490    5.0360 C.ar    1  UNL1        0.0789
      8 C           5.6160   -6.4590    4.9950 C.ar    1  UNL1        0.0327
      9 C           6.2680   -7.6500    4.7450 C.ar    1  UNL1        0.1360
     10 N           2.2180   -7.4490    4.9890 N.ar    1  UNL1       -0.2111
     11 C           2.0990   -6.1300    5.2270 C.ar    1  UNL1        0.2379
     12 N           3.3200   -5.4620    5.2380 N.ar    1  UNL1       -0.2973
     13 C           6.6480   -5.3950    5.2390 C.3     1  UNL1        0.0759
     14 C           7.9660   -6.0960    4.7890 C.3     1  UNL1        0.1862
     15 O           7.6280   -7.5080    4.7040 O.3     1  UNL1       -0.4777
     16 C           3.5240   -4.0070    5.3040 C.3     1  UNL1        0.1102
     17 C           9.1000   -5.9100    5.8060 C.3     1  UNL1        0.1166
     18 C           3.2580   -3.2820    3.9610 C.3     1  UNL1        0.0419
     19 C           2.5190    0.4460    3.3580 C.3     1  UNL1        0.0897
     20 C           3.6300   -1.0970    1.8070 C.3     1  UNL1        0.0897
     21 C           3.2540   -1.7490    4.1840 C.3     1  UNL1        0.0742
     22 C          11.0670   -5.9050    4.3910 C.3     1  UNL1        0.0898
     23 C          11.2210   -6.7640    6.6390 C.3     1  UNL1        0.0898
@<TRIPOS>BOND
     1     1     3   ar
     2     1     9   ar
     3     3     5   ar
     4     4    19    1
     5     4    21    1
     6     5    10   ar
     7     5     7   ar
     8     6    17    1
     9     6    23    1
    10     7    12   ar
    11     8     7   ar
    12     8    13    1
    13     9     8   ar
    14    10    11   ar
    15    11     2    1
    16    11    12   ar
    17    12    16    1
    18    14    13    1
    19    14    17    1
    20    15     9    1
    21    15    14    1
    22    18    16    1
    23    18    21    1
    24    20     4    1
    25    22     6    1
