@<TRIPOS>MOLECULE
2BE0_JS5_A_50
 113 117 0 0 0
SMALL
GASTEIGER

@<TRIPOS>ATOM
      1 C           1.7567   -2.9149   -0.1060 C.3     1  UNL1        0.1776
      2 H           1.8924   -2.0067    0.4856 H       1  UNL1        0.0927
      3 O           0.3627   -3.2954   -0.0636 O.3     1  UNL1       -0.3422
      4 C          -0.7082   -2.3697   -0.3655 C.3     1  UNL1        0.1055
      5 H          -1.6038   -2.9549   -0.1217 H       1  UNL1        0.0639
      6 C          -0.8633   -1.9477   -1.8647 C.3     1  UNL1        0.0355
      7 H          -0.0569   -1.2553   -2.1171 H       1  UNL1        0.0485
      8 C          -2.1778   -1.1853   -2.0749 C.3     1  UNL1       -0.0175
      9 C          -2.1013    0.1343   -1.3296 C.3     1  UNL1        0.0351
     10 H          -1.3054    0.7599   -1.7544 H       1  UNL1        0.0485
     11 N          -3.3639    0.9010   -1.4494 N.3     1  UNL1       -0.3250
     12 C          -1.8274   -0.0874    0.1545 C.3     1  UNL1        0.0990
     13 H          -2.7813   -0.4026    0.5648 H       1  UNL1        0.0636
     14 C          -0.7186   -1.0995    0.5254 C.3     1  UNL1        0.1166
     15 H           0.2362   -0.5855    0.3685 H       1  UNL1        0.0650
     16 O          -0.7021   -1.3919    1.9376 O.3     1  UNL1       -0.3402
     17 C          -1.8684   -1.9862    2.5255 C.3     1  UNL1        0.1887
     18 H          -2.1179   -2.9154    2.0072 H       1  UNL1        0.0938
     19 O          -3.0119   -1.1468    2.4490 O.3     1  UNL1       -0.3405
     20 C          -3.0990   -0.3725    3.6388 C.3     1  UNL1        0.1135
     21 H          -4.1740   -0.2092    3.8021 H       1  UNL1        0.0647
     22 C          -2.4972   -1.2267    4.7627 C.3     1  UNL1        0.1208
     23 H          -1.9594   -0.5985    5.4793 H       1  UNL1        0.0651
     24 C          -1.5532   -2.2093    4.0197 C.3     1  UNL1        0.1380
     25 H          -0.5338   -1.8573    4.2283 H       1  UNL1        0.0674
     26 O          -1.5656   -3.6010    4.3861 O.3     1  UNL1       -0.3676
     27 C          -0.5401   -4.3430    3.6649 C.3     1  UNL1        0.0608
     28 C          -0.4380   -5.8179    4.0695 C.3     1  UNL1        0.0194
     29 N           0.5172   -6.6326    3.2741 N.3     1  UNL1       -0.3135
     30 C           1.9054   -6.1801    3.4022 C.3     1  UNL1       -0.0000
     31 C           2.9548   -7.0611    2.6795 C.3     1  UNL1       -0.0159
     32 H           3.9126   -6.5281    2.7814 H       1  UNL1        0.0325
     33 C           2.6719   -7.2488    1.1793 C.3     1  UNL1       -0.0001
     34 N           3.7782   -7.9531    0.5142 N.3     1  UNL1       -0.3157
     35 C           3.8988   -9.3075    1.0591 C.3     1  UNL1       -0.0041
     36 C           4.1762   -9.2711    2.5652 C.3     1  UNL1       -0.0401
     37 C           3.1334   -8.4435    3.3270 C.3     1  UNL1       -0.0467
     38 O          -3.6840   -1.7169    5.3361 O.3     1  UNL1       -0.3410
     39 C          -3.7202   -2.2969    6.5954 C.3     1  UNL1        0.1776
     40 H          -4.7582   -2.0763    6.8679 H       1  UNL1        0.0927
     41 C          -2.8734   -1.8369    7.8112 C.3     1  UNL1        0.0853
     42 H          -2.9305   -0.7488    7.9175 H       1  UNL1        0.0535
     43 N          -1.4450   -2.2085    7.6608 N.3     1  UNL1       -0.3211
     44 C          -3.5340   -2.5403    9.0560 C.3     1  UNL1        0.1033
     45 H          -2.8535   -2.4247    9.9100 H       1  UNL1        0.0637
     46 O          -4.7417   -1.8787    9.4761 O.3     1  UNL1       -0.3874
     47 C          -3.8272   -4.0652    8.8435 C.3     1  UNL1        0.1100
     48 H          -4.5821   -4.4011    9.5647 H       1  UNL1        0.0646
     49 O          -2.6160   -4.7695    9.1190 O.3     1  UNL1       -0.3866
     50 C          -4.3779   -4.3568    7.4218 C.3     1  UNL1        0.1022
     51 H          -5.3851   -3.9163    7.3757 H       1  UNL1        0.0636
     52 O          -3.5741   -3.6929    6.4471 O.3     1  UNL1       -0.3425
     53 C          -4.5689   -5.7803    6.8771 C.3     1  UNL1        0.0222
     54 N          -3.4454   -6.7089    6.9550 N.3     1  UNL1       -0.3276
     55 C          -2.4954    1.0176    3.4872 C.3     1  UNL1        0.0730
     56 O          -2.7444    1.8093    4.6475 O.3     1  UNL1       -0.3924
     57 O          -1.5185    1.1930    0.7240 O.3     1  UNL1       -0.3876
     58 N          -0.8240   -3.0299   -2.8437 N.3     1  UNL1       -0.3250
     59 C           2.2614   -2.7303   -1.5630 C.3     1  UNL1        0.0853
     60 H           1.8006   -1.8336   -1.9708 H       1  UNL1        0.0535
     61 N           1.8669   -3.8714   -2.4332 N.3     1  UNL1       -0.3211
     62 C           3.7776   -2.4931   -1.5831 C.3     1  UNL1        0.1033
     63 H           4.0921   -2.4384   -2.6334 H       1  UNL1        0.0637
     64 O           4.1014   -1.2157   -1.0349 O.3     1  UNL1       -0.3874
     65 C           4.5221   -3.6416   -0.9071 C.3     1  UNL1        0.1109
     66 H           5.5902   -3.4142   -0.8209 H       1  UNL1        0.0646
     67 O           4.4257   -4.8267   -1.7206 O.3     1  UNL1       -0.3865
     68 C           3.9371   -3.9719    0.4765 C.3     1  UNL1        0.1129
     69 H           4.2278   -5.0073    0.6847 H       1  UNL1        0.0647
     70 O           2.4968   -3.9630    0.5565 O.3     1  UNL1       -0.3415
     71 C           4.5771   -3.1766    1.6170 C.3     1  UNL1        0.0730
     72 O           4.2790   -1.7894    1.5064 O.3     1  UNL1       -0.3924
     73 H          -3.0267   -1.7880   -1.7240 H       1  UNL1        0.0297
     74 H          -2.3442   -0.9881   -3.1407 H       1  UNL1        0.0297
     75 H          -4.1442    0.3335   -1.1173 H       1  UNL1        0.1185
     76 H          -3.5591    1.0702   -2.4370 H       1  UNL1        0.1185
     77 H           0.4175   -3.8548    3.8582 H       1  UNL1        0.0573
     78 H          -0.7331   -4.3064    2.5881 H       1  UNL1        0.0573
     79 H          -1.4294   -6.2803    3.9489 H       1  UNL1        0.0446
     80 H          -0.2085   -5.9121    5.1391 H       1  UNL1        0.0446
     81 H           0.2445   -6.5760    2.2907 H       1  UNL1        0.1220
     82 H           2.1750   -6.1330    4.4648 H       1  UNL1        0.0427
     83 H           2.0011   -5.1646    3.0022 H       1  UNL1        0.0427
     84 H           2.5336   -6.2924    0.6837 H       1  UNL1        0.0427
     85 H           1.7422   -7.7980    1.0121 H       1  UNL1        0.0427
     86 H           4.6510   -7.4438    0.6670 H       1  UNL1        0.1219
     87 H           4.7094   -9.8271    0.5447 H       1  UNL1        0.0424
     88 H           2.9796   -9.8615    0.8536 H       1  UNL1        0.0424
     89 H           5.1741   -8.8492    2.7417 H       1  UNL1        0.0278
     90 H           4.1894  -10.2945    2.9559 H       1  UNL1        0.0278
     91 H           3.4456   -8.3376    4.3721 H       1  UNL1        0.0269
     92 H           2.1794   -8.9840    3.3277 H       1  UNL1        0.0269
     93 H          -1.4225   -3.0919    7.1380 H       1  UNL1        0.1187
     94 H          -1.0604   -2.4639    8.5771 H       1  UNL1        0.1187
     95 H          -5.1263   -1.3606    8.7502 H       1  UNL1        0.2100
     96 H          -2.5751   -4.8827   10.0860 H       1  UNL1        0.2100
     97 H          -4.8002   -5.6746    5.8076 H       1  UNL1        0.0448
     98 H          -5.4475   -6.2375    7.3455 H       1  UNL1        0.0448
     99 H          -2.6076   -6.2142    6.6396 H       1  UNL1        0.1183
    100 H          -3.5965   -7.4556    6.2781 H       1  UNL1        0.1183
    101 H          -2.9589    1.5275    2.6368 H       1  UNL1        0.0584
    102 H          -1.4188    0.9721    3.3094 H       1  UNL1        0.0584
    103 H          -3.6945    2.0265    4.6533 H       1  UNL1        0.2095
    104 H          -2.2244    1.7827    0.3888 H       1  UNL1        0.2100
    105 H          -0.0011   -3.6206   -2.6306 H       1  UNL1        0.1185
    106 H          -1.6323   -3.6416   -2.7692 H       1  UNL1        0.1185
    107 H           2.3410   -4.7149   -2.0828 H       1  UNL1        0.1187
    108 H           2.2125   -3.7177   -3.3791 H       1  UNL1        0.1187
    109 H           4.2104   -1.2944   -0.0603 H       1  UNL1        0.2100
    110 H           4.7419   -4.6102   -2.6155 H       1  UNL1        0.2100
    111 H           4.2192   -3.5398    2.5870 H       1  UNL1        0.0584
    112 H           5.6665   -3.2957    1.5973 H       1  UNL1        0.0584
    113 H           3.7384   -1.5629    2.2874 H       1  UNL1        0.2095
@<TRIPOS>BOND
     1     1    59    1
     2     1    70    1
     3     1     3    1
     4     1     2    1
     5     4     6    1
     6     4     5    1
     7     4     3    1
     8     6     7    1
     9     6     8    1
    10     6    58    1
    11     8     9    1
    12     8    73    1
    13     8    74    1
    14     9    12    1
    15     9    11    1
    16     9    10    1
    17    11    75    1
    18    11    76    1
    19    12    13    1
    20    12    14    1
    21    12    57    1
    22    14     4    1
    23    14    16    1
    24    14    15    1
    25    17    19    1
    26    17    24    1
    27    17    18    1
    28    17    16    1
    29    19    20    1
    30    20    21    1
    31    20    22    1
    32    20    55    1
    33    22    24    1
    34    22    38    1
    35    22    23    1
    36    24    26    1
    37    24    25    1
    38    26    27    1
    39    27    28    1
    40    27    77    1
    41    27    78    1
    42    28    29    1
    43    28    79    1
    44    28    80    1
    45    29    30    1
    46    29    81    1
    47    30    82    1
    48    30    83    1
    49    31    33    1
    50    31    37    1
    51    31    32    1
    52    31    30    1
    53    33    34    1
    54    33    84    1
    55    33    85    1
    56    34    35    1
    57    34    86    1
    58    35    36    1
    59    35    87    1
    60    35    88    1
    61    36    37    1
    62    36    89    1
    63    36    90    1
    64    37    91    1
    65    37    92    1
    66    39    41    1
    67    39    52    1
    68    39    40    1
    69    39    38    1
    70    41    44    1
    71    41    43    1
    72    41    42    1
    73    43    93    1
    74    43    94    1
    75    44    47    1
    76    44    46    1
    77    44    45    1
    78    46    95    1
    79    47    48    1
    80    47    49    1
    81    47    50    1
    82    49    96    1
    83    50    51    1
    84    50    52    1
    85    50    53    1
    86    53    54    1
    87    53    97    1
    88    53    98    1
    89    54    99    1
    90    54   100    1
    91    55    56    1
    92    55   101    1
    93    55   102    1
    94    56   103    1
    95    57   104    1
    96    58   105    1
    97    58   106    1
    98    59    62    1
    99    59    61    1
   100    59    60    1
   101    61   107    1
   102    61   108    1
   103    62    64    1
   104    62    63    1
   105    64   109    1
   106    65    62    1
   107    65    66    1
   108    65    67    1
   109    67   110    1
   110    68    65    1
   111    68    70    1
   112    68    71    1
   113    68    69    1
   114    71    72    1
   115    71   111    1
   116    71   112    1
   117    72   113    1
