REMARK  27 active torsions:
REMARK  status: ('A' for Active; 'I' for Inactive)
REMARK    1  A    between atoms: C_1  and  O_2 
REMARK    2  A    between atoms: C_3  and  O_2 
REMARK    3  A    between atoms: C_4  and  N_42 
REMARK    4  A    between atoms: C_6  and  N_7 
REMARK    5  A    between atoms: C_8  and  O_41 
REMARK    6  A    between atoms: C_9  and  O_10 
REMARK    7  A    between atoms: C_11  and  O_10 
REMARK    8  A    between atoms: C_13  and  C_39 
REMARK    9  A    between atoms: C_14  and  O_27 
REMARK   10  A    between atoms: C_15  and  O_16 
REMARK   11  A    between atoms: O_16  and  C_17 
REMARK   12  A    between atoms: C_17  and  C_18 
REMARK   13  A    between atoms: C_18  and  N_19 
REMARK   14  A    between atoms: N_19  and  C_20 
REMARK   15  A    between atoms: C_21  and  C_20 
REMARK   16  A    between atoms: C_28  and  O_27 
REMARK   17  A    between atoms: C_29  and  N_30 
REMARK   18  A    between atoms: C_31  and  O_32 
REMARK   19  A    between atoms: C_33  and  O_34 
REMARK   20  A    between atoms: C_35  and  C_37 
REMARK   21  A    between atoms: C_37  and  N_38 
REMARK   22  A    between atoms: C_39  and  O_40 
REMARK   23  A    between atoms: C_43  and  N_44 
REMARK   24  A    between atoms: C_45  and  O_46 
REMARK   25  A    between atoms: C_47  and  O_48 
REMARK   26  A    between atoms: C_49  and  C_51 
REMARK   27  A    between atoms: C_51  and  O_52 
ROOT
ATOM      1  C   UNL d   1      -1.868  -1.986   2.526  0.00  0.00     0.292 C 
ATOM      2  O   UNL d   1      -3.012  -1.147   2.449  0.00  0.00    -0.348 OA
ATOM      3  C   UNL d   1      -3.099  -0.372   3.639  0.00  0.00     0.180 C 
ATOM      4  C   UNL d   1      -2.497  -1.227   4.763  0.00  0.00     0.189 C 
ATOM      5  C   UNL d   1      -1.553  -2.209   4.020  0.00  0.00     0.208 C 
ENDROOT
BRANCH   1   6
ATOM      6  O   UNL d   1      -0.702  -1.392   1.938  0.00  0.00    -0.348 OA
BRANCH   6   7
ATOM      7  C   UNL d   1      -0.719  -1.099   0.525  0.00  0.00     0.186 C 
ATOM      8  C   UNL d   1      -1.827  -0.087   0.154  0.00  0.00     0.182 C 
ATOM      9  C   UNL d   1      -2.101   0.134  -1.330  0.00  0.00     0.251 C 
ATOM     10  C   UNL d   1      -2.178  -1.185  -2.075  0.00  0.00     0.076 C 
ATOM     11  C   UNL d   1      -0.863  -1.948  -1.865  0.00  0.00     0.251 C 
ATOM     12  C   UNL d   1      -0.708  -2.370  -0.365  0.00  0.00     0.189 C 
BRANCH   8  13
ATOM     13  O   UNL d   1      -1.518   1.193   0.724  0.00  0.00    -0.391 OA
ATOM     14  H   UNL d   1      -2.224   1.783   0.389  0.00  0.00     0.210 HD
ENDBRANCH   8  13
BRANCH   9  15
ATOM     15  N   UNL d   1      -3.364   0.901  -1.449  0.00  0.00     0.085 N 
ATOM     16  H   UNL d   1      -4.144   0.334  -1.117  0.00  0.00     0.313 HD
ATOM     17  H   UNL d   1      -3.559   1.070  -2.437  0.00  0.00     0.313 HD
ENDBRANCH   9  15
BRANCH  11  18
ATOM     18  N   UNL d   1      -0.824  -3.030  -2.844  0.00  0.00     0.085 N 
ATOM     19  H   UNL d   1      -0.001  -3.621  -2.631  0.00  0.00     0.313 HD
ATOM     20  H   UNL d   1      -1.632  -3.642  -2.769  0.00  0.00     0.313 HD
ENDBRANCH  11  18
BRANCH  12  21
ATOM     21  O   UNL d   1       0.363  -3.295  -0.064  0.00  0.00    -0.349 OA
BRANCH  21  22
ATOM     22  C   UNL d   1       1.757  -2.915  -0.106  0.00  0.00     0.296 C 
ATOM     23  C   UNL d   1       2.261  -2.730  -1.563  0.00  0.00     0.303 C 
ATOM     24  C   UNL d   1       3.778  -2.493  -1.583  0.00  0.00     0.187 C 
ATOM     25  C   UNL d   1       4.522  -3.642  -0.907  0.00  0.00     0.180 C 
ATOM     26  C   UNL d   1       3.937  -3.972   0.476  0.00  0.00     0.179 C 
ATOM     27  O   UNL d   1       2.497  -3.963   0.556  0.00  0.00    -0.349 OA
BRANCH  23  28
ATOM     28  N   UNL d   1       1.867  -3.871  -2.433  0.00  0.00     0.090 N 
ATOM     29  H   UNL d   1       2.341  -4.715  -2.083  0.00  0.00     0.313 HD
ATOM     30  H   UNL d   1       2.212  -3.718  -3.379  0.00  0.00     0.313 HD
ENDBRANCH  23  28
BRANCH  24  31
ATOM     31  O   UNL d   1       4.101  -1.216  -1.035  0.00  0.00    -0.391 OA
ATOM     32  H   UNL d   1       4.210  -1.294  -0.060  0.00  0.00     0.210 HD
ENDBRANCH  24  31
BRANCH  25  33
ATOM     33  O   UNL d   1       4.426  -4.827  -1.721  0.00  0.00    -0.390 OA
ATOM     34  H   UNL d   1       4.742  -4.610  -2.615  0.00  0.00     0.210 HD
ENDBRANCH  25  33
BRANCH  26  35
ATOM     35  C   UNL d   1       4.577  -3.177   1.617  0.00  0.00     0.198 C 
BRANCH  35  36
ATOM     36  O   UNL d   1       4.279  -1.789   1.506  0.00  0.00    -0.398 OA
ATOM     37  H   UNL d   1       3.738  -1.563   2.287  0.00  0.00     0.209 HD
ENDBRANCH  35  36
ENDBRANCH  26  35
ENDBRANCH  21  22
ENDBRANCH  12  21
ENDBRANCH   6   7
ENDBRANCH   1   6
BRANCH   5  38
ATOM     38  O   UNL d   1      -1.566  -3.601   4.386  0.00  0.00    -0.377 OA
BRANCH  38  39
ATOM     39  C   UNL d   1      -0.540  -4.343   3.665  0.00  0.00     0.198 C 
BRANCH  39  40
ATOM     40  C   UNL d   1      -0.438  -5.818   4.069  0.00  0.00     0.295 C 
BRANCH  40  41
ATOM     41  N   UNL d   1       0.517  -6.633   3.274  0.00  0.00     0.085 N 
ATOM     42  H   UNL d   1       0.244  -6.576   2.291  0.00  0.00     0.315 HD
BRANCH  41  43
ATOM     43  C   UNL d   1       1.905  -6.180   3.402  0.00  0.00     0.276 C 
BRANCH  43  44
ATOM     44  C   UNL d   1       2.955  -7.061   2.679  0.00  0.00     0.042 C 
ATOM     45  C   UNL d   1       2.672  -7.249   1.179  0.00  0.00     0.275 C 
ATOM     46  N   UNL d   1       3.778  -7.953   0.514  0.00  0.00     0.083 N 
ATOM     47  C   UNL d   1       3.899  -9.307   1.059  0.00  0.00     0.269 C 
ATOM     48  H   UNL d   1       4.651  -7.444   0.667  0.00  0.00     0.315 HD
ATOM     49  C   UNL d   1       4.176  -9.271   2.565  0.00  0.00     0.030 C 
ATOM     50  C   UNL d   1       3.133  -8.444   3.327  0.00  0.00     0.010 C 
ENDBRANCH  43  44
ENDBRANCH  41  43
ENDBRANCH  40  41
ENDBRANCH  39  40
ENDBRANCH  38  39
ENDBRANCH   5  38
BRANCH   3  51
ATOM     51  C   UNL d   1      -2.495   1.018   3.487  0.00  0.00     0.198 C 
BRANCH  51  52
ATOM     52  O   UNL d   1      -2.744   1.809   4.647  0.00  0.00    -0.398 OA
ATOM     53  H   UNL d   1      -3.695   2.026   4.653  0.00  0.00     0.209 HD
ENDBRANCH  51  52
ENDBRANCH   3  51
BRANCH   4  54
ATOM     54  O   UNL d   1      -3.684  -1.717   5.336  0.00  0.00    -0.348 OA
BRANCH  54  55
ATOM     55  C   UNL d   1      -3.720  -2.297   6.595  0.00  0.00     0.296 C 
ATOM     56  C   UNL d   1      -2.873  -1.837   7.811  0.00  0.00     0.303 C 
ATOM     57  C   UNL d   1      -3.534  -2.540   9.056  0.00  0.00     0.187 C 
ATOM     58  C   UNL d   1      -3.827  -4.065   8.844  0.00  0.00     0.179 C 
ATOM     59  C   UNL d   1      -4.378  -4.357   7.422  0.00  0.00     0.183 C 
ATOM     60  O   UNL d   1      -3.574  -3.693   6.447  0.00  0.00    -0.349 OA
BRANCH  56  61
ATOM     61  N   UNL d   1      -1.445  -2.208   7.661  0.00  0.00     0.090 N 
ATOM     62  H   UNL d   1      -1.423  -3.092   7.138  0.00  0.00     0.313 HD
ATOM     63  H   UNL d   1      -1.060  -2.464   8.577  0.00  0.00     0.313 HD
ENDBRANCH  56  61
BRANCH  57  64
ATOM     64  O   UNL d   1      -4.742  -1.879   9.476  0.00  0.00    -0.391 OA
ATOM     65  H   UNL d   1      -5.126  -1.361   8.750  0.00  0.00     0.210 HD
ENDBRANCH  57  64
BRANCH  58  66
ATOM     66  O   UNL d   1      -2.616  -4.769   9.119  0.00  0.00    -0.390 OA
ATOM     67  H   UNL d   1      -2.575  -4.883  10.086  0.00  0.00     0.210 HD
ENDBRANCH  58  66
BRANCH  59  68
ATOM     68  C   UNL d   1      -4.569  -5.780   6.877  0.00  0.00     0.301 C 
BRANCH  68  69
ATOM     69  N   UNL d   1      -3.445  -6.709   6.955  0.00  0.00     0.080 N 
ATOM     70  H   UNL d   1      -2.608  -6.214   6.640  0.00  0.00     0.312 HD
ATOM     71  H   UNL d   1      -3.596  -7.456   6.278  0.00  0.00     0.312 HD
ENDBRANCH  68  69
ENDBRANCH  59  68
ENDBRANCH  54  55
ENDBRANCH   4  54
TORSDOF 27
