2BE0_JS5_A_50
 OpenBabel03221817183D

113117  0  0  1  0  0  0  0  0999 V2000
    1.7567   -2.9149   -0.1060 C   0  0  2  0  0  0  0  0  0  0  0  0
    1.8924   -2.0067    0.4856 H   0  0  0  0  0  0  0  0  0  0  0  0
    0.3627   -3.2954   -0.0636 O   0  0  0  0  0  0  0  0  0  0  0  0
   -0.7082   -2.3697   -0.3655 C   0  0  2  0  0  0  0  0  0  0  0  0
   -1.6038   -2.9549   -0.1217 H   0  0  0  0  0  0  0  0  0  0  0  0
   -0.8633   -1.9477   -1.8647 C   0  0  2  0  0  0  0  0  0  0  0  0
   -0.0569   -1.2553   -2.1171 H   0  0  0  0  0  0  0  0  0  0  0  0
   -2.1778   -1.1853   -2.0749 C   0  0  0  0  0  0  0  0  0  0  0  0
   -2.1013    0.1343   -1.3296 C   0  0  1  0  0  0  0  0  0  0  0  0
   -1.3054    0.7599   -1.7544 H   0  0  0  0  0  0  0  0  0  0  0  0
   -3.3639    0.9010   -1.4494 N   0  0  0  0  0  0  0  0  0  0  0  0
   -1.8274   -0.0874    0.1545 C   0  0  1  0  0  0  0  0  0  0  0  0
   -2.7813   -0.4026    0.5648 H   0  0  0  0  0  0  0  0  0  0  0  0
   -0.7186   -1.0995    0.5254 C   0  0  1  0  0  0  0  0  0  0  0  0
    0.2362   -0.5855    0.3685 H   0  0  0  0  0  0  0  0  0  0  0  0
   -0.7021   -1.3919    1.9376 O   0  0  0  0  0  0  0  0  0  0  0  0
   -1.8684   -1.9862    2.5255 C   0  0  2  0  0  0  0  0  0  0  0  0
   -2.1179   -2.9154    2.0072 H   0  0  0  0  0  0  0  0  0  0  0  0
   -3.0119   -1.1468    2.4490 O   0  0  0  0  0  0  0  0  0  0  0  0
   -3.0990   -0.3725    3.6388 C   0  0  1  0  0  0  0  0  0  0  0  0
   -4.1740   -0.2092    3.8021 H   0  0  0  0  0  0  0  0  0  0  0  0
   -2.4972   -1.2267    4.7627 C   0  0  2  0  0  0  0  0  0  0  0  0
   -1.9594   -0.5985    5.4793 H   0  0  0  0  0  0  0  0  0  0  0  0
   -1.5532   -2.2093    4.0197 C   0  0  1  0  0  0  0  0  0  0  0  0
   -0.5338   -1.8573    4.2283 H   0  0  0  0  0  0  0  0  0  0  0  0
   -1.5656   -3.6010    4.3861 O   0  0  0  0  0  0  0  0  0  0  0  0
   -0.5401   -4.3430    3.6649 C   0  0  0  0  0  0  0  0  0  0  0  0
   -0.4380   -5.8179    4.0695 C   0  0  0  0  0  0  0  0  0  0  0  0
    0.5172   -6.6326    3.2741 N   0  0  0  0  0  0  0  0  0  0  0  0
    1.9054   -6.1801    3.4022 C   0  0  0  0  0  0  0  0  0  0  0  0
    2.9548   -7.0611    2.6795 C   0  0  2  0  0  0  0  0  0  0  0  0
    3.9126   -6.5281    2.7814 H   0  0  0  0  0  0  0  0  0  0  0  0
    2.6719   -7.2488    1.1793 C   0  0  0  0  0  0  0  0  0  0  0  0
    3.7782   -7.9531    0.5142 N   0  0  0  0  0  0  0  0  0  0  0  0
    3.8988   -9.3075    1.0591 C   0  0  0  0  0  0  0  0  0  0  0  0
    4.1762   -9.2711    2.5652 C   0  0  0  0  0  0  0  0  0  0  0  0
    3.1334   -8.4435    3.3270 C   0  0  0  0  0  0  0  0  0  0  0  0
   -3.6840   -1.7169    5.3361 O   0  0  0  0  0  0  0  0  0  0  0  0
   -3.7202   -2.2969    6.5954 C   0  0  2  0  0  0  0  0  0  0  0  0
   -4.7582   -2.0763    6.8679 H   0  0  0  0  0  0  0  0  0  0  0  0
   -2.8734   -1.8369    7.8112 C   0  0  2  0  0  0  0  0  0  0  0  0
   -2.9305   -0.7488    7.9175 H   0  0  0  0  0  0  0  0  0  0  0  0
   -1.4450   -2.2085    7.6608 N   0  0  0  0  0  0  0  0  0  0  0  0
   -3.5340   -2.5403    9.0560 C   0  0  1  0  0  0  0  0  0  0  0  0
   -2.8535   -2.4247    9.9100 H   0  0  0  0  0  0  0  0  0  0  0  0
   -4.7417   -1.8787    9.4761 O   0  0  0  0  0  0  0  0  0  0  0  0
   -3.8272   -4.0652    8.8435 C   0  0  2  0  0  0  0  0  0  0  0  0
   -4.5821   -4.4011    9.5647 H   0  0  0  0  0  0  0  0  0  0  0  0
   -2.6160   -4.7695    9.1190 O   0  0  0  0  0  0  0  0  0  0  0  0
   -4.3779   -4.3568    7.4218 C   0  0  1  0  0  0  0  0  0  0  0  0
   -5.3851   -3.9163    7.3757 H   0  0  0  0  0  0  0  0  0  0  0  0
   -3.5741   -3.6929    6.4471 O   0  0  0  0  0  0  0  0  0  0  0  0
   -4.5689   -5.7803    6.8771 C   0  0  0  0  0  0  0  0  0  0  0  0
   -3.4454   -6.7089    6.9550 N   0  0  0  0  0  0  0  0  0  0  0  0
   -2.4954    1.0176    3.4872 C   0  0  0  0  0  0  0  0  0  0  0  0
   -2.7444    1.8093    4.6475 O   0  0  0  0  0  0  0  0  0  0  0  0
   -1.5185    1.1930    0.7240 O   0  0  0  0  0  0  0  0  0  0  0  0
   -0.8240   -3.0299   -2.8437 N   0  0  0  0  0  0  0  0  0  0  0  0
    2.2614   -2.7303   -1.5630 C   0  0  2  0  0  0  0  0  0  0  0  0
    1.8006   -1.8336   -1.9708 H   0  0  0  0  0  0  0  0  0  0  0  0
    1.8669   -3.8714   -2.4332 N   0  0  0  0  0  0  0  0  0  0  0  0
    3.7776   -2.4931   -1.5831 C   0  0  1  0  0  0  0  0  0  0  0  0
    4.0921   -2.4384   -2.6334 H   0  0  0  0  0  0  0  0  0  0  0  0
    4.1014   -1.2157   -1.0349 O   0  0  0  0  0  0  0  0  0  0  0  0
    4.5221   -3.6416   -0.9071 C   0  0  2  0  0  0  0  0  0  0  0  0
    5.5902   -3.4142   -0.8209 H   0  0  0  0  0  0  0  0  0  0  0  0
    4.4257   -4.8267   -1.7206 O   0  0  0  0  0  0  0  0  0  0  0  0
    3.9371   -3.9719    0.4765 C   0  0  2  0  0  0  0  0  0  0  0  0
    4.2278   -5.0073    0.6847 H   0  0  0  0  0  0  0  0  0  0  0  0
    2.4968   -3.9630    0.5565 O   0  0  0  0  0  0  0  0  0  0  0  0
    4.5771   -3.1766    1.6170 C   0  0  0  0  0  0  0  0  0  0  0  0
    4.2790   -1.7894    1.5064 O   0  0  0  0  0  0  0  0  0  0  0  0
   -3.0267   -1.7880   -1.7240 H   0  0  0  0  0  0  0  0  0  0  0  0
   -2.3442   -0.9881   -3.1407 H   0  0  0  0  0  0  0  0  0  0  0  0
   -4.1442    0.3335   -1.1173 H   0  0  0  0  0  0  0  0  0  0  0  0
   -3.5591    1.0702   -2.4370 H   0  0  0  0  0  0  0  0  0  0  0  0
    0.4175   -3.8548    3.8582 H   0  0  0  0  0  0  0  0  0  0  0  0
   -0.7331   -4.3064    2.5881 H   0  0  0  0  0  0  0  0  0  0  0  0
   -1.4294   -6.2803    3.9489 H   0  0  0  0  0  0  0  0  0  0  0  0
   -0.2085   -5.9121    5.1391 H   0  0  0  0  0  0  0  0  0  0  0  0
    0.2445   -6.5760    2.2907 H   0  0  0  0  0  0  0  0  0  0  0  0
    2.1750   -6.1330    4.4648 H   0  0  0  0  0  0  0  0  0  0  0  0
    2.0011   -5.1646    3.0022 H   0  0  0  0  0  0  0  0  0  0  0  0
    2.5336   -6.2924    0.6837 H   0  0  0  0  0  0  0  0  0  0  0  0
    1.7422   -7.7980    1.0121 H   0  0  0  0  0  0  0  0  0  0  0  0
    4.6510   -7.4438    0.6670 H   0  0  0  0  0  0  0  0  0  0  0  0
    4.7094   -9.8271    0.5447 H   0  0  0  0  0  0  0  0  0  0  0  0
    2.9796   -9.8615    0.8536 H   0  0  0  0  0  0  0  0  0  0  0  0
    5.1741   -8.8492    2.7417 H   0  0  0  0  0  0  0  0  0  0  0  0
    4.1894  -10.2945    2.9559 H   0  0  0  0  0  0  0  0  0  0  0  0
    3.4456   -8.3376    4.3721 H   0  0  0  0  0  0  0  0  0  0  0  0
    2.1794   -8.9840    3.3277 H   0  0  0  0  0  0  0  0  0  0  0  0
   -1.4225   -3.0919    7.1380 H   0  0  0  0  0  0  0  0  0  0  0  0
   -1.0604   -2.4639    8.5771 H   0  0  0  0  0  0  0  0  0  0  0  0
   -5.1263   -1.3606    8.7502 H   0  0  0  0  0  0  0  0  0  0  0  0
   -2.5751   -4.8827   10.0860 H   0  0  0  0  0  0  0  0  0  0  0  0
   -4.8002   -5.6746    5.8076 H   0  0  0  0  0  0  0  0  0  0  0  0
   -5.4475   -6.2375    7.3455 H   0  0  0  0  0  0  0  0  0  0  0  0
   -2.6076   -6.2142    6.6396 H   0  0  0  0  0  0  0  0  0  0  0  0
   -3.5965   -7.4556    6.2781 H   0  0  0  0  0  0  0  0  0  0  0  0
   -2.9589    1.5275    2.6368 H   0  0  0  0  0  0  0  0  0  0  0  0
   -1.4188    0.9721    3.3094 H   0  0  0  0  0  0  0  0  0  0  0  0
   -3.6945    2.0265    4.6533 H   0  0  0  0  0  0  0  0  0  0  0  0
   -2.2244    1.7827    0.3888 H   0  0  0  0  0  0  0  0  0  0  0  0
   -0.0011   -3.6206   -2.6306 H   0  0  0  0  0  0  0  0  0  0  0  0
   -1.6323   -3.6416   -2.7692 H   0  0  0  0  0  0  0  0  0  0  0  0
    2.3410   -4.7149   -2.0828 H   0  0  0  0  0  0  0  0  0  0  0  0
    2.2125   -3.7177   -3.3791 H   0  0  0  0  0  0  0  0  0  0  0  0
    4.2104   -1.2944   -0.0603 H   0  0  0  0  0  0  0  0  0  0  0  0
    4.7419   -4.6102   -2.6155 H   0  0  0  0  0  0  0  0  0  0  0  0
    4.2192   -3.5398    2.5870 H   0  0  0  0  0  0  0  0  0  0  0  0
    5.6665   -3.2957    1.5973 H   0  0  0  0  0  0  0  0  0  0  0  0
    3.7384   -1.5629    2.2874 H   0  0  0  0  0  0  0  0  0  0  0  0
  1 59  1  6  0  0  0
  1 70  1  0  0  0  0
  1  3  1  0  0  0  0
  1  2  1  0  0  0  0
  4  6  1  6  0  0  0
  4  5  1  0  0  0  0
  4  3  1  0  0  0  0
  6  7  1  6  0  0  0
  6  8  1  0  0  0  0
  6 58  1  0  0  0  0
  8  9  1  0  0  0  0
  8 73  1  0  0  0  0
  8 74  1  0  0  0  0
  9 12  1  1  0  0  0
  9 11  1  0  0  0  0
  9 10  1  0  0  0  0
 11 75  1  0  0  0  0
 11 76  1  0  0  0  0
 12 13  1  0  0  0  0
 12 14  1  1  0  0  0
 12 57  1  0  0  0  0
 14  4  1  6  0  0  0
 14 16  1  0  0  0  0
 14 15  1  0  0  0  0
 17 19  1  0  0  0  0
 17 24  1  1  0  0  0
 17 18  1  0  0  0  0
 17 16  1  0  0  0  0
 19 20  1  0  0  0  0
 20 21  1  0  0  0  0
 20 22  1  1  0  0  0
 20 55  1  0  0  0  0
 22 24  1  6  0  0  0
 22 38  1  0  0  0  0
 22 23  1  0  0  0  0
 24 26  1  0  0  0  0
 24 25  1  1  0  0  0
 26 27  1  0  0  0  0
 27 28  1  0  0  0  0
 27 77  1  0  0  0  0
 27 78  1  0  0  0  0
 28 29  1  0  0  0  0
 28 79  1  0  0  0  0
 28 80  1  0  0  0  0
 29 30  1  0  0  0  0
 29 81  1  0  0  0  0
 30 82  1  0  0  0  0
 30 83  1  0  0  0  0
 31 33  1  0  0  0  0
 31 37  1  0  0  0  0
 31 32  1  1  0  0  0
 31 30  1  0  0  0  0
 33 34  1  0  0  0  0
 33 84  1  0  0  0  0
 33 85  1  0  0  0  0
 34 35  1  0  0  0  0
 34 86  1  0  0  0  0
 35 36  1  0  0  0  0
 35 87  1  0  0  0  0
 35 88  1  0  0  0  0
 36 37  1  0  0  0  0
 36 89  1  0  0  0  0
 36 90  1  0  0  0  0
 37 91  1  0  0  0  0
 37 92  1  0  0  0  0
 39 41  1  1  0  0  0
 39 52  1  0  0  0  0
 39 40  1  0  0  0  0
 39 38  1  0  0  0  0
 41 44  1  1  0  0  0
 41 43  1  0  0  0  0
 41 42  1  0  0  0  0
 43 93  1  0  0  0  0
 43 94  1  0  0  0  0
 44 47  1  6  0  0  0
 44 46  1  0  0  0  0
 44 45  1  0  0  0  0
 46 95  1  0  0  0  0
 47 48  1  0  0  0  0
 47 49  1  0  0  0  0
 47 50  1  6  0  0  0
 49 96  1  0  0  0  0
 50 51  1  6  0  0  0
 50 52  1  0  0  0  0
 50 53  1  0  0  0  0
 53 54  1  0  0  0  0
 53 97  1  0  0  0  0
 53 98  1  0  0  0  0
 54 99  1  0  0  0  0
 54100  1  0  0  0  0
 55 56  1  0  0  0  0
 55101  1  0  0  0  0
 55102  1  0  0  0  0
 56103  1  0  0  0  0
 57104  1  0  0  0  0
 58105  1  0  0  0  0
 58106  1  0  0  0  0
 59 62  1  6  0  0  0
 59 61  1  0  0  0  0
 59 60  1  0  0  0  0
 61107  1  0  0  0  0
 61108  1  0  0  0  0
 62 64  1  0  0  0  0
 62 63  1  6  0  0  0
 64109  1  0  0  0  0
 65 62  1  6  0  0  0
 65 66  1  0  0  0  0
 65 67  1  0  0  0  0
 67110  1  0  0  0  0
 68 65  1  6  0  0  0
 68 70  1  0  0  0  0
 68 71  1  0  0  0  0
 68 69  1  0  0  0  0
 71 72  1  0  0  0  0
 71111  1  0  0  0  0
 71112  1  0  0  0  0
 72113  1  0  0  0  0
M  END
$$$$
