@<TRIPOS>MOLECULE
1NTB_SRY_A_25
 79 81 0 0 0
SMALL
GASTEIGER

@<TRIPOS>ATOM
      1 C          -1.5106   -3.4555   -5.0538 C.3     1  UNL1        0.1329
      2 H          -1.1793   -4.5013   -4.9991 H       1  UNL1        0.0746
      3 N          -1.6028   -3.1651   -6.4908 N.pl3   1  UNL1       -0.2682
      4 C          -2.5685   -2.6956   -7.3077 C.cat   1  UNL1        0.3766
      5 N          -3.8112   -2.4732   -7.1019 N.pl3   1  UNL1       -0.1298
      6 N          -2.1077   -2.5026   -8.5527 N.pl3   1  UNL1       -0.2893
      7 C          -2.8272   -3.3240   -4.2788 C.3     1  UNL1        0.1266
      8 H          -3.2294   -2.3110   -4.3910 H       1  UNL1        0.0665
      9 O          -3.7998   -4.2359   -4.8170 O.3     1  UNL1       -0.3847
     10 C          -2.6428   -3.6125   -2.7585 C.3     1  UNL1        0.1333
     11 H          -2.2950   -4.6454   -2.6782 H       1  UNL1        0.0746
     12 N          -3.9297   -3.4422   -2.0790 N.pl3   1  UNL1       -0.2682
     13 C          -4.6533   -4.3952   -1.4461 C.cat   1  UNL1        0.3766
     14 N          -4.3625   -5.6283   -1.2339 N.pl3   1  UNL1       -0.1298
     15 N          -5.7985   -3.9394   -0.9273 N.pl3   1  UNL1       -0.2893
     16 C          -1.5781   -2.6454   -2.1475 C.3     1  UNL1        0.1258
     17 H          -1.9609   -1.6232   -2.2778 H       1  UNL1        0.0659
     18 O          -1.3522   -2.7321   -0.7116 O.3     1  UNL1       -0.3392
     19 C          -0.8159   -3.9580   -0.2012 C.3     1  UNL1        0.1895
     20 H           0.1050   -4.1777   -0.7277 H       1  UNL1        0.0938
     21 C          -0.5765   -3.9315    1.3380 C.3     1  UNL1        0.1499
     22 H          -1.2551   -3.1793    1.7571 H       1  UNL1        0.0682
     23 C          -1.0345   -5.3288    1.7815 C.3     1  UNL1        0.1770
     24 O           0.0100   -6.2803    1.8861 O.3     1  UNL1       -0.3763
     25 C          -1.6768   -5.3831    3.1526 C.2     1  UNL1        0.1570
     26 O          -1.9169   -4.4218    3.8717 O.2     1  UNL1       -0.2978
     27 C          -1.9730   -5.8052    0.6850 C.3     1  UNL1        0.0969
     28 H          -3.0188   -5.6588    0.9731 H       1  UNL1        0.0628
     29 C          -1.7287   -7.2533    0.2498 C.3     1  UNL1       -0.0354
     30 O          -1.7016   -5.0278   -0.4883 O.3     1  UNL1       -0.3423
     31 O           0.7374   -3.5686    1.8470 O.3     1  UNL1       -0.3380
     32 C           1.9147   -3.9576    1.1372 C.3     1  UNL1        0.1780
     33 H           1.7814   -3.7211    0.0838 H       1  UNL1        0.0927
     34 C           3.1878   -3.1808    1.5809 C.3     1  UNL1        0.0876
     35 H           4.0156   -3.4918    0.9181 H       1  UNL1        0.0537
     36 N           3.1247   -1.7000    1.5086 N.3     1  UNL1       -0.3099
     37 C           2.9475   -1.2268    0.1388 C.3     1  UNL1       -0.0153
     38 C           3.5991   -3.6471    2.9873 C.3     1  UNL1        0.1035
     39 H           2.8308   -3.4019    3.7300 H       1  UNL1        0.0637
     40 O           4.8115   -3.0007    3.3973 O.3     1  UNL1       -0.3874
     41 C           3.8398   -5.1745    2.9826 C.3     1  UNL1        0.1109
     42 H           4.6951   -5.3888    2.3319 H       1  UNL1        0.0646
     43 O           4.1775   -5.6772    4.2790 O.3     1  UNL1       -0.3865
     44 C           2.5968   -5.8822    2.4607 C.3     1  UNL1        0.1129
     45 H           1.7951   -5.7516    3.1965 H       1  UNL1        0.0647
     46 O           2.1631   -5.3666    1.1783 O.3     1  UNL1       -0.3415
     47 C           2.8609   -7.3985    2.2935 C.3     1  UNL1        0.0730
     48 O           1.7197   -8.1279    1.8278 O.3     1  UNL1       -0.3924
     49 C          -0.2529   -2.7425   -2.9328 C.3     1  UNL1        0.1138
     50 H           0.2323   -3.7062   -2.7493 H       1  UNL1        0.0647
     51 O           0.6960   -1.7544   -2.4884 O.3     1  UNL1       -0.3864
     52 C          -0.4143   -2.5619   -4.4482 C.3     1  UNL1        0.1193
     53 H          -0.6053   -1.5075   -4.6827 H       1  UNL1        0.0656
     54 O           0.8459   -2.8820   -5.0736 O.3     1  UNL1       -0.3856
     55 H          -0.7008   -3.2995   -6.9480 H       1  UNL1        0.2583
     56 H          -4.1149   -2.6793   -6.1546 H       1  UNL1        0.3062
     57 H          -1.2588   -1.9585   -8.6115 H       1  UNL1        0.2546
     58 H          -2.8367   -2.0822   -9.1222 H       1  UNL1        0.2546
     59 H          -3.5411   -4.4718   -5.7324 H       1  UNL1        0.2101
     60 H          -4.4862   -2.6604   -2.3879 H       1  UNL1        0.2583
     61 H          -3.4374   -5.8210   -1.6182 H       1  UNL1        0.3062
     62 H          -6.4088   -3.5064   -1.6045 H       1  UNL1        0.2546
     63 H          -6.2803   -4.7194   -0.4879 H       1  UNL1        0.2546
     64 H           0.6351   -6.0802    1.1520 H       1  UNL1        0.2109
     65 H          -1.8996   -6.4084    3.5138 H       1  UNL1        0.1059
     66 H          -1.7632   -7.9492    1.0919 H       1  UNL1        0.0256
     67 H          -0.7496   -7.3415   -0.2428 H       1  UNL1        0.0256
     68 H          -2.4578   -7.5678   -0.5005 H       1  UNL1        0.0256
     69 H           4.0200   -1.3335    1.8412 H       1  UNL1        0.1221
     70 H           2.1484   -1.7487   -0.3870 H       1  UNL1        0.0388
     71 H           3.8721   -1.3324   -0.4380 H       1  UNL1        0.0388
     72 H           2.6718   -0.1685    0.1525 H       1  UNL1        0.0388
     73 H           4.5527   -2.1264    3.7426 H       1  UNL1        0.2100
     74 H           3.6055   -5.2574    4.9440 H       1  UNL1        0.2100
     75 H           3.1739   -7.8546    3.2361 H       1  UNL1        0.0584
     76 H           3.6405   -7.5592    1.5441 H       1  UNL1        0.0584
     77 H           0.9178   -7.6811    2.1667 H       1  UNL1        0.2095
     78 H           0.2025   -0.9762   -2.1645 H       1  UNL1        0.2100
     79 H           1.5373   -2.4628   -4.5211 H       1  UNL1        0.2100
@<TRIPOS>BOND
     1     1     7    1
     2     1     3    1
     3     1     2    1
     4     3     4    1
     5     3    55    1
     6     4     5    2
     7     4     6    1
     8     5    56    1
     9     6    57    1
    10     6    58    1
    11     7     8    1
    12     7     9    1
    13     7    10    1
    14     9    59    1
    15    10    11    1
    16    10    12    1
    17    10    16    1
    18    12    13    1
    19    12    60    1
    20    13    14    2
    21    13    15    1
    22    14    61    1
    23    15    62    1
    24    15    63    1
    25    16    49    1
    26    16    18    1
    27    16    17    1
    28    18    19    1
    29    19    20    1
    30    19    21    1
    31    19    30    1
    32    21    23    1
    33    21    31    1
    34    21    22    1
    35    23    27    1
    36    23    25    1
    37    23    24    1
    38    24    64    1
    39    25    26    2
    40    25    65    1
    41    27    28    1
    42    27    29    1
    43    27    30    1
    44    29    66    1
    45    29    67    1
    46    29    68    1
    47    31    32    1
    48    32    33    1
    49    32    46    1
    50    34    32    1
    51    34    35    1
    52    34    36    1
    53    36    37    1
    54    36    69    1
    55    37    70    1
    56    37    71    1
    57    37    72    1
    58    38    34    1
    59    38    39    1
    60    38    40    1
    61    40    73    1
    62    41    38    1
    63    41    43    1
    64    41    42    1
    65    43    74    1
    66    44    41    1
    67    44    45    1
    68    44    46    1
    69    44    47    1
    70    47    48    1
    71    47    75    1
    72    47    76    1
    73    48    77    1
    74    49    50    1
    75    49    51    1
    76    49    52    1
    77    51    78    1
    78    52     1    1
    79    52    54    1
    80    52    53    1
    81    54    79    1
