1NTB_SRY_A_25
 OpenBabel03221816533D

 79 81  0  0  1  0  0  0  0  0999 V2000
   -1.5106   -3.4555   -5.0538 C   0  0  2  0  0  0  0  0  0  0  0  0
   -1.1793   -4.5013   -4.9991 H   0  0  0  0  0  0  0  0  0  0  0  0
   -1.6028   -3.1651   -6.4908 N   0  0  0  0  0  0  0  0  0  0  0  0
   -2.5685   -2.6956   -7.3077 C   0  0  0  0  0  0  0  0  0  0  0  0
   -3.8112   -2.4732   -7.1019 N   0  0  0  0  0  0  0  0  0  0  0  0
   -2.1077   -2.5026   -8.5527 N   0  0  0  0  0  0  0  0  0  0  0  0
   -2.8272   -3.3240   -4.2788 C   0  0  1  0  0  0  0  0  0  0  0  0
   -3.2294   -2.3110   -4.3910 H   0  0  0  0  0  0  0  0  0  0  0  0
   -3.7998   -4.2359   -4.8170 O   0  0  0  0  0  0  0  0  0  0  0  0
   -2.6428   -3.6125   -2.7585 C   0  0  2  0  0  0  0  0  0  0  0  0
   -2.2950   -4.6454   -2.6782 H   0  0  0  0  0  0  0  0  0  0  0  0
   -3.9297   -3.4422   -2.0790 N   0  0  0  0  0  0  0  0  0  0  0  0
   -4.6533   -4.3952   -1.4461 C   0  0  0  0  0  0  0  0  0  0  0  0
   -4.3625   -5.6283   -1.2339 N   0  0  0  0  0  0  0  0  0  0  0  0
   -5.7985   -3.9394   -0.9273 N   0  0  0  0  0  0  0  0  0  0  0  0
   -1.5781   -2.6454   -2.1475 C   0  0  1  0  0  0  0  0  0  0  0  0
   -1.9609   -1.6232   -2.2778 H   0  0  0  0  0  0  0  0  0  0  0  0
   -1.3522   -2.7321   -0.7116 O   0  0  0  0  0  0  0  0  0  0  0  0
   -0.8159   -3.9580   -0.2012 C   0  0  1  0  0  0  0  0  0  0  0  0
    0.1050   -4.1777   -0.7277 H   0  0  0  0  0  0  0  0  0  0  0  0
   -0.5765   -3.9315    1.3380 C   0  0  1  0  0  0  0  0  0  0  0  0
   -1.2551   -3.1793    1.7571 H   0  0  0  0  0  0  0  0  0  0  0  0
   -1.0345   -5.3288    1.7815 C   0  0  1  0  0  0  0  0  0  0  0  0
    0.0100   -6.2803    1.8861 O   0  0  0  0  0  0  0  0  0  0  0  0
   -1.6768   -5.3831    3.1526 C   0  0  0  0  0  0  0  0  0  0  0  0
   -1.9169   -4.4218    3.8717 O   0  0  0  0  0  0  0  0  0  0  0  0
   -1.9730   -5.8052    0.6850 C   0  0  2  0  0  0  0  0  0  0  0  0
   -3.0188   -5.6588    0.9731 H   0  0  0  0  0  0  0  0  0  0  0  0
   -1.7287   -7.2533    0.2498 C   0  0  0  0  0  0  0  0  0  0  0  0
   -1.7016   -5.0278   -0.4883 O   0  0  0  0  0  0  0  0  0  0  0  0
    0.7374   -3.5686    1.8470 O   0  0  0  0  0  0  0  0  0  0  0  0
    1.9147   -3.9576    1.1372 C   0  0  1  0  0  0  0  0  0  0  0  0
    1.7814   -3.7211    0.0838 H   0  0  0  0  0  0  0  0  0  0  0  0
    3.1878   -3.1808    1.5809 C   0  0  1  0  0  0  0  0  0  0  0  0
    4.0156   -3.4918    0.9181 H   0  0  0  0  0  0  0  0  0  0  0  0
    3.1247   -1.7000    1.5086 N   0  0  0  0  0  0  0  0  0  0  0  0
    2.9475   -1.2268    0.1388 C   0  0  0  0  0  0  0  0  0  0  0  0
    3.5991   -3.6471    2.9873 C   0  0  2  0  0  0  0  0  0  0  0  0
    2.8308   -3.4019    3.7300 H   0  0  0  0  0  0  0  0  0  0  0  0
    4.8115   -3.0007    3.3973 O   0  0  0  0  0  0  0  0  0  0  0  0
    3.8398   -5.1745    2.9826 C   0  0  1  0  0  0  0  0  0  0  0  0
    4.6951   -5.3888    2.3319 H   0  0  0  0  0  0  0  0  0  0  0  0
    4.1775   -5.6772    4.2790 O   0  0  0  0  0  0  0  0  0  0  0  0
    2.5968   -5.8822    2.4607 C   0  0  1  0  0  0  0  0  0  0  0  0
    1.7951   -5.7516    3.1965 H   0  0  0  0  0  0  0  0  0  0  0  0
    2.1631   -5.3666    1.1783 O   0  0  0  0  0  0  0  0  0  0  0  0
    2.8609   -7.3985    2.2935 C   0  0  0  0  0  0  0  0  0  0  0  0
    1.7197   -8.1279    1.8278 O   0  0  0  0  0  0  0  0  0  0  0  0
   -0.2529   -2.7425   -2.9328 C   0  0  2  0  0  0  0  0  0  0  0  0
    0.2323   -3.7062   -2.7493 H   0  0  0  0  0  0  0  0  0  0  0  0
    0.6960   -1.7544   -2.4884 O   0  0  0  0  0  0  0  0  0  0  0  0
   -0.4143   -2.5619   -4.4482 C   0  0  1  0  0  0  0  0  0  0  0  0
   -0.6053   -1.5075   -4.6827 H   0  0  0  0  0  0  0  0  0  0  0  0
    0.8459   -2.8820   -5.0736 O   0  0  0  0  0  0  0  0  0  0  0  0
   -0.7008   -3.2995   -6.9480 H   0  0  0  0  0  0  0  0  0  0  0  0
   -4.1149   -2.6793   -6.1546 H   0  0  0  0  0  0  0  0  0  0  0  0
   -1.2588   -1.9585   -8.6115 H   0  0  0  0  0  0  0  0  0  0  0  0
   -2.8367   -2.0822   -9.1222 H   0  0  0  0  0  0  0  0  0  0  0  0
   -3.5411   -4.4718   -5.7324 H   0  0  0  0  0  0  0  0  0  0  0  0
   -4.4862   -2.6604   -2.3879 H   0  0  0  0  0  0  0  0  0  0  0  0
   -3.4374   -5.8210   -1.6182 H   0  0  0  0  0  0  0  0  0  0  0  0
   -6.4088   -3.5064   -1.6045 H   0  0  0  0  0  0  0  0  0  0  0  0
   -6.2803   -4.7194   -0.4879 H   0  0  0  0  0  0  0  0  0  0  0  0
    0.6351   -6.0802    1.1520 H   0  0  0  0  0  0  0  0  0  0  0  0
   -1.8996   -6.4084    3.5138 H   0  0  0  0  0  0  0  0  0  0  0  0
   -1.7632   -7.9492    1.0919 H   0  0  0  0  0  0  0  0  0  0  0  0
   -0.7496   -7.3415   -0.2428 H   0  0  0  0  0  0  0  0  0  0  0  0
   -2.4578   -7.5678   -0.5005 H   0  0  0  0  0  0  0  0  0  0  0  0
    4.0200   -1.3335    1.8412 H   0  0  0  0  0  0  0  0  0  0  0  0
    2.1484   -1.7487   -0.3870 H   0  0  0  0  0  0  0  0  0  0  0  0
    3.8721   -1.3324   -0.4380 H   0  0  0  0  0  0  0  0  0  0  0  0
    2.6718   -0.1685    0.1525 H   0  0  0  0  0  0  0  0  0  0  0  0
    4.5527   -2.1264    3.7426 H   0  0  0  0  0  0  0  0  0  0  0  0
    3.6055   -5.2574    4.9440 H   0  0  0  0  0  0  0  0  0  0  0  0
    3.1739   -7.8546    3.2361 H   0  0  0  0  0  0  0  0  0  0  0  0
    3.6405   -7.5592    1.5441 H   0  0  0  0  0  0  0  0  0  0  0  0
    0.9178   -7.6811    2.1667 H   0  0  0  0  0  0  0  0  0  0  0  0
    0.2025   -0.9762   -2.1645 H   0  0  0  0  0  0  0  0  0  0  0  0
    1.5373   -2.4628   -4.5211 H   0  0  0  0  0  0  0  0  0  0  0  0
  1  7  1  1  0  0  0
  1  3  1  0  0  0  0
  1  2  1  0  0  0  0
  3  4  1  0  0  0  0
  3 55  1  0  0  0  0
  4  5  2  0  0  0  0
  4  6  1  0  0  0  0
  5 56  1  0  0  0  0
  6 57  1  0  0  0  0
  6 58  1  0  0  0  0
  7  8  1  0  0  0  0
  7  9  1  0  0  0  0
  7 10  1  1  0  0  0
  9 59  1  0  0  0  0
 10 11  1  0  0  0  0
 10 12  1  0  0  0  0
 10 16  1  1  0  0  0
 12 13  1  0  0  0  0
 12 60  1  0  0  0  0
 13 14  2  0  0  0  0
 13 15  1  0  0  0  0
 14 61  1  0  0  0  0
 15 62  1  0  0  0  0
 15 63  1  0  0  0  0
 16 49  1  6  0  0  0
 16 18  1  0  0  0  0
 16 17  1  0  0  0  0
 18 19  1  0  0  0  0
 19 20  1  0  0  0  0
 19 21  1  1  0  0  0
 19 30  1  0  0  0  0
 21 23  1  1  0  0  0
 21 31  1  0  0  0  0
 21 22  1  0  0  0  0
 23 27  1  6  0  0  0
 23 25  1  0  0  0  0
 23 24  1  0  0  0  0
 24 64  1  0  0  0  0
 25 26  2  0  0  0  0
 25 65  1  0  0  0  0
 27 28  1  1  0  0  0
 27 29  1  0  0  0  0
 27 30  1  0  0  0  0
 29 66  1  0  0  0  0
 29 67  1  0  0  0  0
 29 68  1  0  0  0  0
 31 32  1  0  0  0  0
 32 33  1  6  0  0  0
 32 46  1  0  0  0  0
 34 32  1  6  0  0  0
 34 35  1  0  0  0  0
 34 36  1  0  0  0  0
 36 37  1  0  0  0  0
 36 69  1  0  0  0  0
 37 70  1  0  0  0  0
 37 71  1  0  0  0  0
 37 72  1  0  0  0  0
 38 34  1  6  0  0  0
 38 39  1  0  0  0  0
 38 40  1  0  0  0  0
 40 73  1  0  0  0  0
 41 38  1  1  0  0  0
 41 43  1  0  0  0  0
 41 42  1  0  0  0  0
 43 74  1  0  0  0  0
 44 41  1  1  0  0  0
 44 45  1  0  0  0  0
 44 46  1  0  0  0  0
 44 47  1  0  0  0  0
 47 48  1  0  0  0  0
 47 75  1  0  0  0  0
 47 76  1  0  0  0  0
 48 77  1  0  0  0  0
 49 50  1  0  0  0  0
 49 51  1  0  0  0  0
 49 52  1  6  0  0  0
 51 78  1  0  0  0  0
 52  1  1  6  0  0  0
 52 54  1  0  0  0  0
 52 53  1  0  0  0  0
 54 79  1  0  0  0  0
M  END
$$$$
