2L1V_PRF_A_37
 OpenBabel10091713583D
Coordinates from PDB:2L1V:A:37 Model:1 without hydrogens
 22 23  0  0  0  0  0  0  0  0999 V2000
    2.1260    3.3000   -4.6910 N   0  0  0  0  0  0  0  0  0  0  0  0
    3.3920    2.7990   -4.8710 C   0  0  0  0  0  0  0  0  0  0  0  0
    3.7940    1.7340   -4.1860 N   0  0  0  0  0  0  0  0  0  0  0  0
    2.9700    1.1060   -3.2910 C   0  0  0  0  0  0  0  0  0  0  0  0
    1.6580    1.5960   -3.0680 C   0  0  0  0  0  0  0  0  0  0  0  0
    1.2420    2.7360   -3.8130 C   0  0  0  0  0  0  0  0  0  0  0  0
    0.1260    3.2040   -3.6780 O   0  0  0  0  0  0  0  0  0  0  0  0
    1.0570    0.7380   -2.0470 C   0  0  0  0  0  0  0  0  0  0  0  0
   -0.3050    0.8880   -1.4250 C   0  0  0  0  0  0  0  0  0  0  0  0
   -1.3300    0.8900   -2.4780 N   0  0  0  0  0  0  0  0  0  0  0  0
    1.9750   -0.1930   -1.7580 C   0  0  0  0  0  0  0  0  0  0  0  0
    3.1160    0.0240   -2.4840 N   0  0  0  0  0  0  0  0  0  0  0  0
    4.2400    3.3950   -5.7670 N   0  0  0  0  0  0  0  0  0  0  0  0
    1.8464    4.0888   -5.2095 H   0  0  0  0  0  0  0  0  0  0  0  0
   -0.3495    1.8095   -0.8830 H   0  0  0  0  0  0  0  0  0  0  0  0
   -0.4828    0.0709   -0.7574 H   0  0  0  0  0  0  0  0  0  0  0  0
   -1.1615    1.6686   -3.1151 H   0  0  0  0  0  0  0  0  0  0  0  0
   -2.2524    0.9908   -2.0544 H   0  0  0  0  0  0  0  0  0  0  0  0
    1.8419   -0.9637   -1.0847 H   0  0  0  0  0  0  0  0  0  0  0  0
    3.9292   -0.5281   -2.4284 H   0  0  0  0  0  0  0  0  0  0  0  0
    3.9435    4.1843   -6.2753 H   0  0  0  0  0  0  0  0  0  0  0  0
    5.1458    3.0340   -5.9025 H   0  0  0  0  0  0  0  0  0  0  0  0
  1  2  1  0  0  0  0
  1  6  1  0  0  0  0
  1 14  1  0  0  0  0
  2  3  2  0  0  0  0
  2 13  1  0  0  0  0
  3  4  1  0  0  0  0
  4  5  2  0  0  0  0
  4 12  1  0  0  0  0
  5  6  1  0  0  0  0
  5  8  1  0  0  0  0
  6  7  2  0  0  0  0
  8  9  1  0  0  0  0
  8 11  2  0  0  0  0
  9 10  1  0  0  0  0
  9 15  1  0  0  0  0
  9 16  1  0  0  0  0
 10 17  1  0  0  0  0
 10 18  1  0  0  0  0
 11 12  1  0  0  0  0
 11 19  1  0  0  0  0
 12 20  1  0  0  0  0
 13 21  1  0  0  0  0
 13 22  1  0  0  0  0
M  END
$$$$
