@<TRIPOS>MOLECULE
2L1V_PRF_A_37
 13 14 0 0 0
SMALL
GASTEIGER
****
Coordinates from PDB:2L1V:A:37 Model:1 without hydrogens
@<TRIPOS>ATOM
      1 N           2.1260    3.3000   -4.6910 N.ar    1  UNL1       -0.1723
      2 C           3.3920    2.7990   -4.8710 C.ar    1  UNL1        0.2606
      3 N           3.7940    1.7340   -4.1860 N.ar    1  UNL1       -0.1918
      4 C           2.9700    1.1060   -3.2910 C.ar    1  UNL1        0.1697
      5 C           1.6580    1.5960   -3.0680 C.ar    1  UNL1        0.0927
      6 C           1.2420    2.7360   -3.8130 C.ar    1  UNL1        0.2843
      7 O           0.1260    3.2040   -3.6780 O.2     1  UNL1       -0.2650
      8 C           1.0570    0.7380   -2.0470 C.ar    1  UNL1        0.0236
      9 C          -0.3050    0.8880   -1.4250 C.3     1  UNL1        0.1374
     10 N          -1.3300    0.8900   -2.4780 N.3     1  UNL1       -0.1262
     11 C           1.9750   -0.1930   -1.7580 C.ar    1  UNL1        0.0980
     12 N           3.1160    0.0240   -2.4840 N.ar    1  UNL1       -0.2251
     13 N           4.2400    3.3950   -5.7670 N.pl3   1  UNL1       -0.0859
@<TRIPOS>BOND
     1     1     2   ar
     2     1     6   ar
     3     2     3   ar
     4     2    13    1
     5     3     4   ar
     6     4     5   ar
     7     4    12   ar
     8     5     6   ar
     9     5     8   ar
    10     6     7    2
    11     8     9    1
    12     8    11   ar
    13     9    10    1
    14    11    12   ar
