@<TRIPOS>MOLECULE
ligand.pdb
 10 9 0 0 0
SMALL
GASTEIGER

@<TRIPOS>ATOM
      1 N          23.6410   42.2320   23.3330 N.3     1  LYS1       -0.1208
      2 CA         23.6400   40.9880   22.5730 C.3     1  LYS1        0.1943
      3 C          23.8090   39.7840   23.4980 C.2     1  LYS1        0.3819
      4 O          23.9410   39.9580   24.7130 O.co2   1  LYS1       -0.2441
      5 CB         24.7300   41.0080   21.4970 C.3     1  LYS1        0.0307
      6 CG         24.4440   41.9780   20.3570 C.3     1  LYS1        0.0036
      7 CD         25.5580   41.9880   19.3140 C.3     1  LYS1        0.0206
      8 CE         25.1700   42.7950   18.0650 C.3     1  LYS1        0.1093
      9 NZ         24.9040   44.2460   18.3210 N.3     1  LYS1       -0.1314
     10 OXT        23.8020   38.6260   23.0600 O.co2   1  LYS1       -0.2441
@<TRIPOS>BOND
     1     2     3    1
     2     2     5    1
     3     2     1    1
     4     3     4   ar
     5     3    10   ar
     6     5     6    1
     7     6     7    1
     8     7     8    1
     9     8     9    1
