2PWT_LHA_A_51
 OpenBabel10091713573D
Coordinates from PDB:2PWT:A:51 Model:1 without hydrogens
125129  0  0  1  0  0  0  0  0999 V2000
   -1.6220   28.4110   19.3490 C   0  0  2  0  0  0  0  0  0  0  0  0
   -2.2910   29.4780   19.6560 O   0  0  0  0  0  0  0  0  0  0  0  0
   -2.0220   27.1660   20.2530 C   0  0  2  0  0  0  0  0  0  0  0  0
   -3.4240   26.9580   20.2170 N   0  0  0  0  0  0  0  0  0  0  0  0
   -1.4810   27.3810   21.7280 C   0  0  1  0  0  0  0  0  0  0  0  0
   -1.8380   26.2540   22.4630 O   0  0  0  0  0  0  0  0  0  0  0  0
    0.1030   27.6150   21.6820 C   0  0  2  0  0  0  0  0  0  0  0  0
    0.6140   27.8180   23.0720 O   0  0  0  0  0  0  0  0  0  0  0  0
    0.4180   28.9190   20.7980 C   0  0  2  0  0  0  0  0  0  0  0  0
   -0.1380   28.6310   19.4400 O   0  0  0  0  0  0  0  0  0  0  0  0
    1.8530   29.1230   20.7410 C   0  0  0  0  0  0  0  0  0  0  0  0
    2.0160   30.1920   20.0190 O   0  0  0  0  0  0  0  0  0  0  0  0
   -4.0390   32.9140   17.7300 C   0  0  2  0  0  0  0  0  0  0  0  0
   -4.2010   34.1080   16.8250 N   0  0  0  0  0  0  0  0  0  0  0  0
   -2.6600   33.1710   18.6020 C   0  0  0  0  0  0  0  0  0  0  0  0
   -2.4540   31.9480   19.6190 C   0  0  2  0  0  0  0  0  0  0  0  0
   -1.2140   32.1250   20.4170 N   0  0  0  0  0  0  0  0  0  0  0  0
   -2.4250   30.5110   18.7570 C   0  0  2  0  0  0  0  0  0  0  0  0
   -3.7670   30.3520   17.9000 C   0  0  2  0  0  0  0  0  0  0  0  0
   -3.6550   29.0920   17.1630 O   0  0  0  0  0  0  0  0  0  0  0  0
   -3.9170   31.5420   16.9140 C   0  0  1  0  0  0  0  0  0  0  0  0
   -5.1050   31.3610   16.1830 O   0  0  0  0  0  0  0  0  0  0  0  0
   -4.8660   28.3360   17.0860 C   0  0  2  0  0  0  0  0  0  0  0  0
   -4.5960   27.0180   17.6350 O   0  0  0  0  0  0  0  0  0  0  0  0
   -5.4430   27.9400   15.7650 C   0  0  2  0  0  0  0  0  0  0  0  0
   -6.8260   27.5460   15.9110 O   0  0  0  0  0  0  0  0  0  0  0  0
   -4.4680   26.8780   15.3430 C   0  0  2  0  0  0  0  0  0  0  0  0
   -4.7170   26.2350   14.1660 O   0  0  0  0  0  0  0  0  0  0  0  0
   -4.3460   25.9550   16.5840 C   0  0  1  0  0  0  0  0  0  0  0  0
   -2.9100   25.2210   16.8240 C   0  0  0  0  0  0  0  0  0  0  0  0
   -1.8840   26.1450   16.9020 O   0  0  0  0  0  0  0  0  0  0  0  0
   -3.7470   26.1660   13.1560 C   0  0  2  0  0  0  0  0  0  0  0  0
   -4.5390   25.6650   11.8640 C   0  0  2  0  0  0  0  0  0  0  0  0
   -5.2220   24.3810   12.2140 N   0  0  0  0  0  0  0  0  0  0  0  0
   -3.4370   25.5350   10.6710 C   0  0  1  0  0  0  0  0  0  0  0  0
   -2.8770   26.8710   10.4550 O   0  0  0  0  0  0  0  0  0  0  0  0
   -2.2500   24.4470   11.1300 C   0  0  2  0  0  0  0  0  0  0  0  0
   -2.8090   23.0960   11.3390 O   0  0  0  0  0  0  0  0  0  0  0  0
   -1.5340   25.0070   12.5210 C   0  0  1  0  0  0  0  0  0  0  0  0
   -2.6410   25.1520   13.5500 O   0  0  0  0  0  0  0  0  0  0  0  0
   -0.4530   23.9760   12.9960 C   0  0  0  0  0  0  0  0  0  0  0  0
   -1.1080   22.8220   13.5590 N   0  0  0  0  0  0  0  0  0  0  0  0
   -7.9080   28.3000   15.3900 C   0  0  0  0  0  0  0  0  0  0  0  0
   -9.1410   27.4670   15.7890 C   0  0  0  0  0  0  0  0  0  0  0  0
   -9.3280   27.3850   17.2680 N   0  0  0  0  0  0  0  0  0  0  0  0
   -9.9770   26.0700   17.6000 C   0  0  0  0  0  0  0  0  0  0  0  0
  -11.0720   26.2160   18.7010 C   0  0  0  0  0  0  0  0  0  0  0  0
  -11.1830   25.0420   19.7150 C   0  0  0  0  0  0  0  0  0  0  0  0
  -12.0250   23.8430   19.3830 C   0  0  0  0  0  0  0  0  0  0  0  0
  -12.1390   22.7210   20.3390 C   0  0  0  0  0  0  0  0  0  0  0  0
  -11.4230   22.7710   21.6450 C   0  0  0  0  0  0  0  0  0  0  0  0
  -10.5850   23.9530   21.9870 C   0  0  0  0  0  0  0  0  0  0  0  0
  -10.4660   25.0910   21.0220 C   0  0  0  0  0  0  0  0  0  0  0  0
   -5.1260   35.0140   17.1860 C   0  0  0  0  0  0  0  0  0  0  0  0
   -5.9940   34.8290   18.0930 O   0  0  0  0  0  0  0  0  0  0  0  0
   -5.0180   36.3230   16.3680 C   0  0  1  0  0  0  0  0  0  0  0  0
   -4.0220   36.3400   15.5930 O   0  0  0  0  0  0  0  0  0  0  0  0
   -6.2820   36.5630   15.4940 C   0  0  0  0  0  0  0  0  0  0  0  0
   -6.5950   38.0510   15.3120 C   0  0  0  0  0  0  0  0  0  0  0  0
   -7.7550   38.2460   14.4140 N   0  0  0  0  0  0  0  0  0  0  0  0
   -1.8795   28.1925   18.3337 H   0  0  0  0  0  0  0  0  0  0  0  0
   -1.5666   26.2783   19.8665 H   0  0  0  0  0  0  0  0  0  0  0  0
   -3.8997   27.7846   20.5787 H   0  0  0  0  0  0  0  0  0  0  0  0
   -3.6627   26.1497   20.7915 H   0  0  0  0  0  0  0  0  0  0  0  0
   -1.9045   28.2459   22.1944 H   0  0  0  0  0  0  0  0  0  0  0  0
   -1.4585   25.4637   22.0479 H   0  0  0  0  0  0  0  0  0  0  0  0
    0.5826   26.7628   21.2477 H   0  0  0  0  0  0  0  0  0  0  0  0
    0.1798   28.5905   23.4665 H   0  0  0  0  0  0  0  0  0  0  0  0
   -0.0157   29.8077   21.2067 H   0  0  0  0  0  0  0  0  0  0  0  0
    2.3336   28.2838   20.2830 H   0  0  0  0  0  0  0  0  0  0  0  0
    2.2813   29.2291   21.7158 H   0  0  0  0  0  0  0  0  0  0  0  0
    1.6155   30.0567   19.1460 H   0  0  0  0  0  0  0  0  0  0  0  0
   -4.9018   32.8163   18.3552 H   0  0  0  0  0  0  0  0  0  0  0  0
   -3.6576   34.2187   16.0116 H   0  0  0  0  0  0  0  0  0  0  0  0
   -2.7476   34.0847   19.1519 H   0  0  0  0  0  0  0  0  0  0  0  0
   -1.8207   33.2393   17.9419 H   0  0  0  0  0  0  0  0  0  0  0  0
   -3.2713   31.9206   20.3091 H   0  0  0  0  0  0  0  0  0  0  0  0
   -0.4088   32.1560   19.7917 H   0  0  0  0  0  0  0  0  0  0  0  0
   -1.1118   31.3434   21.0644 H   0  0  0  0  0  0  0  0  0  0  0  0
   -1.6030   30.5031   18.0720 H   0  0  0  0  0  0  0  0  0  0  0  0
   -4.6285   30.3466   18.5346 H   0  0  0  0  0  0  0  0  0  0  0  0
   -3.0650   31.5814   16.2679 H   0  0  0  0  0  0  0  0  0  0  0  0
   -5.8584   31.3291   16.7931 H   0  0  0  0  0  0  0  0  0  0  0  0
   -5.5459   29.0120   17.5611 H   0  0  0  0  0  0  0  0  0  0  0  0
   -5.5262   28.7001   15.0165 H   0  0  0  0  0  0  0  0  0  0  0  0
   -3.5337   27.3239   15.0725 H   0  0  0  0  0  0  0  0  0  0  0  0
   -4.9892   25.1009   16.5429 H   0  0  0  0  0  0  0  0  0  0  0  0
   -2.7182   24.5542   16.0095 H   0  0  0  0  0  0  0  0  0  0  0  0
   -2.9538   24.6839   17.7484 H   0  0  0  0  0  0  0  0  0  0  0  0
   -1.8315   26.6408   16.0699 H   0  0  0  0  0  0  0  0  0  0  0  0
   -3.2614   27.1045   12.9875 H   0  0  0  0  0  0  0  0  0  0  0  0
   -5.3054   26.3332   11.5309 H   0  0  0  0  0  0  0  0  0  0  0  0
   -4.5303   23.7057   12.5395 H   0  0  0  0  0  0  0  0  0  0  0  0
   -5.6956   24.0120   11.3894 H   0  0  0  0  0  0  0  0  0  0  0  0
   -3.8751   25.1737    9.7641 H   0  0  0  0  0  0  0  0  0  0  0  0
   -2.4815   27.1931   11.2801 H   0  0  0  0  0  0  0  0  0  0  0  0
   -1.5225   24.3671   10.3494 H   0  0  0  0  0  0  0  0  0  0  0  0
   -3.4757   23.1273   12.0428 H   0  0  0  0  0  0  0  0  0  0  0  0
   -1.0430   25.9458   12.3711 H   0  0  0  0  0  0  0  0  0  0  0  0
    0.1715   24.4293   13.7373 H   0  0  0  0  0  0  0  0  0  0  0  0
    0.1461   23.6759   12.1618 H   0  0  0  0  0  0  0  0  0  0  0  0
   -1.6788   23.1092   14.3541 H   0  0  0  0  0  0  0  0  0  0  0  0
   -0.4060   22.1503   13.8694 H   0  0  0  0  0  0  0  0  0  0  0  0
   -7.8348   28.3920   14.3265 H   0  0  0  0  0  0  0  0  0  0  0  0
   -7.9396   29.3022   15.7634 H   0  0  0  0  0  0  0  0  0  0  0  0
   -9.0236   26.4758   15.4035 H   0  0  0  0  0  0  0  0  0  0  0  0
  -10.0035   27.9512   15.3809 H   0  0  0  0  0  0  0  0  0  0  0  0
   -9.9243   28.1508   17.5815 H   0  0  0  0  0  0  0  0  0  0  0  0
   -9.2255   25.3929   17.9488 H   0  0  0  0  0  0  0  0  0  0  0  0
  -10.4494   25.7031   16.7128 H   0  0  0  0  0  0  0  0  0  0  0  0
  -12.0178   26.3149   18.2105 H   0  0  0  0  0  0  0  0  0  0  0  0
  -10.7861   27.0696   19.2795 H   0  0  0  0  0  0  0  0  0  0  0  0
  -12.5269   23.8023   18.4822 H   0  0  0  0  0  0  0  0  0  0  0  0
  -12.7168   21.8998   20.1009 H   0  0  0  0  0  0  0  0  0  0  0  0
  -11.5079   21.9875   22.3113 H   0  0  0  0  0  0  0  0  0  0  0  0
  -10.0860   23.9878   22.8897 H   0  0  0  0  0  0  0  0  0  0  0  0
   -9.8869   25.9109   21.2614 H   0  0  0  0  0  0  0  0  0  0  0  0
   -4.9120   37.0932   17.1032 H   0  0  0  0  0  0  0  0  0  0  0  0
   -4.1187   35.6416   14.9268 H   0  0  0  0  0  0  0  0  0  0  0  0
   -7.1192   36.0913   15.9646 H   0  0  0  0  0  0  0  0  0  0  0  0
   -6.0909   36.1500   14.5256 H   0  0  0  0  0  0  0  0  0  0  0  0
   -5.7410   38.5386   14.8904 H   0  0  0  0  0  0  0  0  0  0  0  0
   -6.8322   38.4676   16.2686 H   0  0  0  0  0  0  0  0  0  0  0  0
   -7.5444   37.8535   13.4964 H   0  0  0  0  0  0  0  0  0  0  0  0
   -7.9491   39.2430   14.3209 H   0  0  0  0  0  0  0  0  0  0  0  0
  1  3  1  0  0  0  0
  1  2  1  0  0  0  0
  1 10  1  0  0  0  0
  1 61  1  6  0  0  0
  2 18  1  0  0  0  0
  3  5  1  0  0  0  0
  3  4  1  0  0  0  0
  3 62  1  6  0  0  0
  4 63  1  0  0  0  0
  4 64  1  0  0  0  0
  5  6  1  0  0  0  0
  5  7  1  0  0  0  0
  5 65  1  1  0  0  0
  6 66  1  0  0  0  0
  7  8  1  0  0  0  0
  7  9  1  0  0  0  0
  7 67  1  6  0  0  0
  8 68  1  0  0  0  0
  9 11  1  0  0  0  0
  9 10  1  0  0  0  0
  9 69  1  1  0  0  0
 11 12  1  0  0  0  0
 11 70  1  0  0  0  0
 11 71  1  0  0  0  0
 12 72  1  0  0  0  0
 13 15  1  0  0  0  0
 13 14  1  0  0  0  0
 13 21  1  0  0  0  0
 13 73  1  1  0  0  0
 14 54  1  0  0  0  0
 14 74  1  0  0  0  0
 15 16  1  0  0  0  0
 15 75  1  0  0  0  0
 15 76  1  0  0  0  0
 16 17  1  0  0  0  0
 16 18  1  0  0  0  0
 16 77  1  1  0  0  0
 17 78  1  0  0  0  0
 17 79  1  0  0  0  0
 18 19  1  0  0  0  0
 18 80  1  6  0  0  0
 19 20  1  0  0  0  0
 19 21  1  0  0  0  0
 19 81  1  1  0  0  0
 20 23  1  0  0  0  0
 21 22  1  0  0  0  0
 21 82  1  6  0  0  0
 22 83  1  0  0  0  0
 23 24  1  0  0  0  0
 23 25  1  0  0  0  0
 23 84  1  1  0  0  0
 24 29  1  0  0  0  0
 25 26  1  0  0  0  0
 25 27  1  0  0  0  0
 25 85  1  6  0  0  0
 26 43  1  0  0  0  0
 27 29  1  0  0  0  0
 27 28  1  0  0  0  0
 27 86  1  6  0  0  0
 28 32  1  0  0  0  0
 29 30  1  0  0  0  0
 29 87  1  1  0  0  0
 30 31  1  0  0  0  0
 30 88  1  0  0  0  0
 30 89  1  0  0  0  0
 31 90  1  0  0  0  0
 32 40  1  0  0  0  0
 32 33  1  0  0  0  0
 32 91  1  6  0  0  0
 33 34  1  0  0  0  0
 33 35  1  0  0  0  0
 33 92  1  6  0  0  0
 34 93  1  0  0  0  0
 34 94  1  0  0  0  0
 35 37  1  0  0  0  0
 35 36  1  0  0  0  0
 35 95  1  6  0  0  0
 36 96  1  0  0  0  0
 37 39  1  0  0  0  0
 37 38  1  0  0  0  0
 37 97  1  6  0  0  0
 38 98  1  0  0  0  0
 39 40  1  0  0  0  0
 39 41  1  0  0  0  0
 39 99  1  6  0  0  0
 41 42  1  0  0  0  0
 41100  1  0  0  0  0
 41101  1  0  0  0  0
 42102  1  0  0  0  0
 42103  1  0  0  0  0
 43 44  1  0  0  0  0
 43104  1  0  0  0  0
 43105  1  0  0  0  0
 44 45  1  0  0  0  0
 44106  1  0  0  0  0
 44107  1  0  0  0  0
 45 46  1  0  0  0  0
 45108  1  0  0  0  0
 46 47  1  0  0  0  0
 46109  1  0  0  0  0
 46110  1  0  0  0  0
 47 48  1  0  0  0  0
 47111  1  0  0  0  0
 47112  1  0  0  0  0
 48 53  2  0  0  0  0
 48 49  1  0  0  0  0
 49 50  2  0  0  0  0
 49113  1  0  0  0  0
 50 51  1  0  0  0  0
 50114  1  0  0  0  0
 51 52  2  0  0  0  0
 51115  1  0  0  0  0
 52 53  1  0  0  0  0
 52116  1  0  0  0  0
 53117  1  0  0  0  0
 54 55  2  0  0  0  0
 54 56  1  0  0  0  0
 56 57  1  0  0  0  0
 56 58  1  0  0  0  0
 56118  1  1  0  0  0
 57119  1  0  0  0  0
 58 59  1  0  0  0  0
 58120  1  0  0  0  0
 58121  1  0  0  0  0
 59 60  1  0  0  0  0
 59122  1  0  0  0  0
 59123  1  0  0  0  0
 60124  1  0  0  0  0
 60125  1  0  0  0  0
M  END
$$$$
