@<TRIPOS>MOLECULE
2PWT_LHA_A_51
 60 64 0 0 0
SMALL
GASTEIGER
****
Coordinates from PDB:2PWT:A:51 Model:1 without hydrogens
@<TRIPOS>ATOM
      1 C          -1.6220   28.4110   19.3490 C.3     1  UNL1        0.2561
      2 O          -2.2910   29.4780   19.6560 O.3     1  UNL1       -0.3278
      3 C          -2.0220   27.1660   20.2530 C.3     1  UNL1        0.1807
      4 N          -3.4240   26.9580   20.2170 N.3     1  UNL1       -0.1248
      5 C          -1.4810   27.3810   21.7280 C.3     1  UNL1        0.2070
      6 O          -1.8380   26.2540   22.4630 O.3     1  UNL1       -0.2186
      7 C           0.1030   27.6150   21.6820 C.3     1  UNL1        0.2133
      8 O           0.6140   27.8180   23.0720 O.3     1  UNL1       -0.2176
      9 C           0.4180   28.9190   20.7980 C.3     1  UNL1        0.1834
     10 O          -0.1380   28.6310   19.4400 O.3     1  UNL1       -0.3264
     11 C           1.8530   29.1230   20.7410 C.3     1  UNL1        0.2142
     12 O           2.0160   30.1920   20.0190 O.3     1  UNL1       -0.2176
     13 C          -4.0390   32.9140   17.7300 C.3     1  UNL1        0.1297
     14 N          -4.2010   34.1080   16.8250 N.am    1  UNL1       -0.2023
     15 C          -2.6600   33.1710   18.6020 C.3     1  UNL1        0.0459
     16 C          -2.4540   31.9480   19.6190 C.3     1  UNL1        0.1232
     17 N          -1.2140   32.1250   20.4170 N.3     1  UNL1       -0.1302
     18 C          -2.4250   30.5110   18.7570 C.3     1  UNL1        0.1649
     19 C          -3.7670   30.3520   17.9000 C.3     1  UNL1        0.1782
     20 O          -3.6550   29.0920   17.1630 O.3     1  UNL1       -0.3259
     21 C          -3.9170   31.5420   16.9140 C.3     1  UNL1        0.2012
     22 O          -5.1050   31.3610   16.1830 O.3     1  UNL1       -0.2186
     23 C          -4.8660   28.3360   17.0860 C.3     1  UNL1        0.2661
     24 O          -4.5960   27.0180   17.6350 O.3     1  UNL1       -0.3258
     25 C          -5.4430   27.9400   15.7650 C.3     1  UNL1        0.2008
     26 O          -6.8260   27.5460   15.9110 O.3     1  UNL1       -0.3470
     27 C          -4.4680   26.8780   15.3430 C.3     1  UNL1        0.1795
     28 O          -4.7170   26.2350   14.1660 O.3     1  UNL1       -0.3266
     29 C          -4.3460   25.9550   16.5840 C.3     1  UNL1        0.1803
     30 C          -2.9100   25.2210   16.8240 C.3     1  UNL1        0.2141
     31 O          -1.8840   26.1450   16.9020 O.3     1  UNL1       -0.2176
     32 C          -3.7470   26.1660   13.1560 C.3     1  UNL1        0.2561
     33 C          -4.5390   25.6650   11.8640 C.3     1  UNL1        0.1807
     34 N          -5.2220   24.3810   12.2140 N.3     1  UNL1       -0.1248
     35 C          -3.4370   25.5350   10.6710 C.3     1  UNL1        0.2070
     36 O          -2.8770   26.8710   10.4550 O.3     1  UNL1       -0.2186
     37 C          -2.2500   24.4470   11.1300 C.3     1  UNL1        0.2122
     38 O          -2.8090   23.0960   11.3390 O.3     1  UNL1       -0.2177
     39 C          -1.5340   25.0070   12.5210 C.3     1  UNL1        0.1696
     40 O          -2.6410   25.1520   13.5500 O.3     1  UNL1       -0.3276
     41 C          -0.4530   23.9760   12.9960 C.3     1  UNL1        0.1415
     42 N          -1.1080   22.8220   13.5590 N.3     1  UNL1       -0.1286
     43 C          -7.9080   28.3000   15.3900 C.3     1  UNL1        0.1611
     44 C          -9.1410   27.4670   15.7890 C.3     1  UNL1        0.1207
     45 N          -9.3280   27.3850   17.2680 N.3     1  UNL1       -0.2150
     46 C          -9.9770   26.0700   17.6000 C.3     1  UNL1        0.0935
     47 C         -11.0720   26.2160   18.7010 C.3     1  UNL1        0.0451
     48 C         -11.1830   25.0420   19.7150 C.ar    1  UNL1       -0.0207
     49 C         -12.0250   23.8430   19.3830 C.ar    1  UNL1       -0.0042
     50 C         -12.1390   22.7210   20.3390 C.ar    1  UNL1       -0.0003
     51 C         -11.4230   22.7710   21.6450 C.ar    1  UNL1       -0.0000
     52 C         -10.5850   23.9530   21.9870 C.ar    1  UNL1       -0.0003
     53 C         -10.4660   25.0910   21.0220 C.ar    1  UNL1       -0.0042
     54 C          -5.1260   35.0140   17.1860 C.2     1  UNL1        0.2719
     55 O          -5.9940   34.8290   18.0930 O.2     1  UNL1       -0.2706
     56 C          -5.0180   36.3230   16.3680 C.3     1  UNL1        0.2305
     57 O          -4.0220   36.3400   15.5930 O.3     1  UNL1       -0.2131
     58 C          -6.2820   36.5630   15.4940 C.3     1  UNL1        0.0630
     59 C          -6.5950   38.0510   15.3120 C.3     1  UNL1        0.1124
     60 N          -7.7550   38.2460   14.4140 N.3     1  UNL1       -0.1313
@<TRIPOS>BOND
     1     1     3    1
     2     1     2    1
     3     1    10    1
     4     3     5    1
     5     3     4    1
     6     5     6    1
     7     5     7    1
     8     7     8    1
     9     7     9    1
    10     9    11    1
    11     9    10    1
    12    11    12    1
    13    13    15    1
    14    13    14    1
    15    13    21    1
    16    14    54   am
    17    15    16    1
    18    16    17    1
    19    16    18    1
    20    18     2    1
    21    18    19    1
    22    19    20    1
    23    19    21    1
    24    21    22    1
    25    23    20    1
    26    23    24    1
    27    23    25    1
    28    24    29    1
    29    25    26    1
    30    25    27    1
    31    26    43    1
    32    27    29    1
    33    27    28    1
    34    29    30    1
    35    30    31    1
    36    32    28    1
    37    32    40    1
    38    32    33    1
    39    33    34    1
    40    33    35    1
    41    35    37    1
    42    35    36    1
    43    37    39    1
    44    37    38    1
    45    39    40    1
    46    39    41    1
    47    41    42    1
    48    43    44    1
    49    44    45    1
    50    45    46    1
    51    46    47    1
    52    47    48    1
    53    48    53   ar
    54    48    49   ar
    55    49    50   ar
    56    50    51   ar
    57    51    52   ar
    58    52    53   ar
    59    54    55    2
    60    54    56    1
    61    56    57    1
    62    56    58    1
    63    58    59    1
    64    59    60    1
