2PWT_LHA_A_51
 OpenBabel10091713573D
Coordinates from PDB:2PWT:A:51 Model:1 without hydrogens
 60 64  0  0  0  0  0  0  0  0999 V2000
   -1.6220   28.4110   19.3490 C   0  0  2  0  0  0  0  0  0  0  0  0
   -2.2910   29.4780   19.6560 O   0  0  0  0  0  0  0  0  0  0  0  0
   -2.0220   27.1660   20.2530 C   0  0  2  0  0  0  0  0  0  0  0  0
   -3.4240   26.9580   20.2170 N   0  0  0  0  0  0  0  0  0  0  0  0
   -1.4810   27.3810   21.7280 C   0  0  1  0  0  0  0  0  0  0  0  0
   -1.8380   26.2540   22.4630 O   0  0  0  0  0  0  0  0  0  0  0  0
    0.1030   27.6150   21.6820 C   0  0  2  0  0  0  0  0  0  0  0  0
    0.6140   27.8180   23.0720 O   0  0  0  0  0  0  0  0  0  0  0  0
    0.4180   28.9190   20.7980 C   0  0  2  0  0  0  0  0  0  0  0  0
   -0.1380   28.6310   19.4400 O   0  0  0  0  0  0  0  0  0  0  0  0
    1.8530   29.1230   20.7410 C   0  0  0  0  0  0  0  0  0  0  0  0
    2.0160   30.1920   20.0190 O   0  0  0  0  0  0  0  0  0  0  0  0
   -4.0390   32.9140   17.7300 C   0  0  2  0  0  0  0  0  0  0  0  0
   -4.2010   34.1080   16.8250 N   0  0  0  0  0  0  0  0  0  0  0  0
   -2.6600   33.1710   18.6020 C   0  0  0  0  0  0  0  0  0  0  0  0
   -2.4540   31.9480   19.6190 C   0  0  2  0  0  0  0  0  0  0  0  0
   -1.2140   32.1250   20.4170 N   0  0  0  0  0  0  0  0  0  0  0  0
   -2.4250   30.5110   18.7570 C   0  0  2  0  0  0  0  0  0  0  0  0
   -3.7670   30.3520   17.9000 C   0  0  2  0  0  0  0  0  0  0  0  0
   -3.6550   29.0920   17.1630 O   0  0  0  0  0  0  0  0  0  0  0  0
   -3.9170   31.5420   16.9140 C   0  0  1  0  0  0  0  0  0  0  0  0
   -5.1050   31.3610   16.1830 O   0  0  0  0  0  0  0  0  0  0  0  0
   -4.8660   28.3360   17.0860 C   0  0  2  0  0  0  0  0  0  0  0  0
   -4.5960   27.0180   17.6350 O   0  0  0  0  0  0  0  0  0  0  0  0
   -5.4430   27.9400   15.7650 C   0  0  2  0  0  0  0  0  0  0  0  0
   -6.8260   27.5460   15.9110 O   0  0  0  0  0  0  0  0  0  0  0  0
   -4.4680   26.8780   15.3430 C   0  0  2  0  0  0  0  0  0  0  0  0
   -4.7170   26.2350   14.1660 O   0  0  0  0  0  0  0  0  0  0  0  0
   -4.3460   25.9550   16.5840 C   0  0  1  0  0  0  0  0  0  0  0  0
   -2.9100   25.2210   16.8240 C   0  0  0  0  0  0  0  0  0  0  0  0
   -1.8840   26.1450   16.9020 O   0  0  0  0  0  0  0  0  0  0  0  0
   -3.7470   26.1660   13.1560 C   0  0  2  0  0  0  0  0  0  0  0  0
   -4.5390   25.6650   11.8640 C   0  0  2  0  0  0  0  0  0  0  0  0
   -5.2220   24.3810   12.2140 N   0  0  0  0  0  0  0  0  0  0  0  0
   -3.4370   25.5350   10.6710 C   0  0  1  0  0  0  0  0  0  0  0  0
   -2.8770   26.8710   10.4550 O   0  0  0  0  0  0  0  0  0  0  0  0
   -2.2500   24.4470   11.1300 C   0  0  2  0  0  0  0  0  0  0  0  0
   -2.8090   23.0960   11.3390 O   0  0  0  0  0  0  0  0  0  0  0  0
   -1.5340   25.0070   12.5210 C   0  0  1  0  0  0  0  0  0  0  0  0
   -2.6410   25.1520   13.5500 O   0  0  0  0  0  0  0  0  0  0  0  0
   -0.4530   23.9760   12.9960 C   0  0  0  0  0  0  0  0  0  0  0  0
   -1.1080   22.8220   13.5590 N   0  0  0  0  0  0  0  0  0  0  0  0
   -7.9080   28.3000   15.3900 C   0  0  0  0  0  0  0  0  0  0  0  0
   -9.1410   27.4670   15.7890 C   0  0  0  0  0  0  0  0  0  0  0  0
   -9.3280   27.3850   17.2680 N   0  0  0  0  0  0  0  0  0  0  0  0
   -9.9770   26.0700   17.6000 C   0  0  0  0  0  0  0  0  0  0  0  0
  -11.0720   26.2160   18.7010 C   0  0  0  0  0  0  0  0  0  0  0  0
  -11.1830   25.0420   19.7150 C   0  0  0  0  0  0  0  0  0  0  0  0
  -12.0250   23.8430   19.3830 C   0  0  0  0  0  0  0  0  0  0  0  0
  -12.1390   22.7210   20.3390 C   0  0  0  0  0  0  0  0  0  0  0  0
  -11.4230   22.7710   21.6450 C   0  0  0  0  0  0  0  0  0  0  0  0
  -10.5850   23.9530   21.9870 C   0  0  0  0  0  0  0  0  0  0  0  0
  -10.4660   25.0910   21.0220 C   0  0  0  0  0  0  0  0  0  0  0  0
   -5.1260   35.0140   17.1860 C   0  0  0  0  0  0  0  0  0  0  0  0
   -5.9940   34.8290   18.0930 O   0  0  0  0  0  0  0  0  0  0  0  0
   -5.0180   36.3230   16.3680 C   0  0  1  0  0  0  0  0  0  0  0  0
   -4.0220   36.3400   15.5930 O   0  0  0  0  0  0  0  0  0  0  0  0
   -6.2820   36.5630   15.4940 C   0  0  0  0  0  0  0  0  0  0  0  0
   -6.5950   38.0510   15.3120 C   0  0  0  0  0  0  0  0  0  0  0  0
   -7.7550   38.2460   14.4140 N   0  0  0  0  0  0  0  0  0  0  0  0
  1  3  1  0  0  0  0
  1  2  1  1  0  0  0
  1 10  1  0  0  0  0
  3  5  1  0  0  0  0
  3  4  1  1  0  0  0
  5  6  1  1  0  0  0
  5  7  1  0  0  0  0
  7  8  1  1  0  0  0
  7  9  1  0  0  0  0
  9 11  1  6  0  0  0
  9 10  1  0  0  0  0
 11 12  1  0  0  0  0
 13 15  1  0  0  0  0
 13 14  1  6  0  0  0
 13 21  1  0  0  0  0
 14 54  1  0  0  0  0
 15 16  1  0  0  0  0
 16 17  1  6  0  0  0
 16 18  1  0  0  0  0
 18  2  1  1  0  0  0
 18 19  1  0  0  0  0
 19 20  1  6  0  0  0
 19 21  1  0  0  0  0
 21 22  1  1  0  0  0
 23 20  1  6  0  0  0
 23 24  1  0  0  0  0
 23 25  1  0  0  0  0
 24 29  1  0  0  0  0
 25 26  1  1  0  0  0
 25 27  1  0  0  0  0
 26 43  1  0  0  0  0
 27 29  1  0  0  0  0
 27 28  1  6  0  0  0
 29 30  1  1  0  0  0
 30 31  1  0  0  0  0
 32 28  1  1  0  0  0
 32 40  1  0  0  0  0
 32 33  1  0  0  0  0
 33 34  1  1  0  0  0
 33 35  1  0  0  0  0
 35 37  1  0  0  0  0
 35 36  1  1  0  0  0
 37 39  1  0  0  0  0
 37 38  1  1  0  0  0
 39 40  1  0  0  0  0
 39 41  1  1  0  0  0
 41 42  1  0  0  0  0
 43 44  1  0  0  0  0
 44 45  1  0  0  0  0
 45 46  1  0  0  0  0
 46 47  1  0  0  0  0
 47 48  1  0  0  0  0
 48 53  2  0  0  0  0
 48 49  1  0  0  0  0
 49 50  2  0  0  0  0
 50 51  1  0  0  0  0
 51 52  2  0  0  0  0
 52 53  1  0  0  0  0
 54 55  2  0  0  0  0
 54 56  1  0  0  0  0
 56 57  1  6  0  0  0
 56 58  1  0  0  0  0
 58 59  1  0  0  0  0
 59 60  1  0  0  0  0
A    1
C11
A    2
O11
A    3
C21
A    4
N21
A    5
C31
A    6
O31
A    7
C41
A    8
O41
A    9
C51
A   10
O51
A   11
C61
A   12
O61
A   13
C12
A   14
N12
A   15
C22
A   16
C32
A   17
N32
A   18
C42
A   19
C52
A   20
O52
A   21
C62
A   22
O62
A   23
C13
A   24
O13
A   25
C23
A   26
O23
A   27
C33
A   28
O33
A   29
C43
A   30
C53
A   31
O53
A   32
C14
A   33
C24
A   34
N24
A   35
C34
A   36
O34
A   37
C44
A   38
O44
A   39
C54
A   40
O54
A   41
C64
A   42
N64
A   43
C15
A   44
C25
A   45
N25
A   46
C35
A   47
C45
A   48
C16
A   49
C26
A   50
C36
A   51
C46
A   52
C56
A   53
C66
A   54
C17
A   55
O17
A   56
C27
A   57
O27
A   58
C37
A   59
C47
A   60
N47
M  END
>  <InstanceId>
2PWT_LHA_A_51

>  <ChemCompId>
LHA

>  <PdbId>
2PWT

>  <ChainId>
A

>  <ResidueNumber>
51

>  <InsertionCode>


>  <Model>
1

>  <AltIds>


>  <MissingHeavyAtoms>
0

>  <ObservedFormula>
C37 N7 O16

>  <Name>
DOUBLY FUNCTIONALIZED PAROMOMYCIN PM-II-162

>  <SystematicName>
(2S)-4-amino-N-[(1R,2S,3R,4R,5S)-5-amino-3-[(2S,3R,4R,5R)-4-[(2R,3R,4R,5S,6S)-3-amino-6-(aminomethyl)-4,5-dihydroxy-oxan-2-yl]oxy-5-(hydroxymethyl)-3-[2-(phenethylamino)ethoxy]oxolan-2-yl]oxy-4-[(2S,3R,4R,5S,6R)-3-amino-4,5-dihydroxy-6-(hydroxymethyl)oxan-2-yl]oxy-2-hydroxy-cyclohexyl]-2-hydroxy-butanamide

>  <Synonyms>
(2S)-4-AMINO-N-[(1R,2S,3R,4R,5S)-5-AMINO-4-[(2-AMINO-2-DEOXY-ALPHA-D-GLUCOPYRANOSYL)OXY]-3-{[3-O-(2,6-DIAMINO-2,6-DIDEOXY-BETA-L-IDOPYRANOSYL)-2-O-{2-[(2-PHENYLETHYL)AMINO]ETHYL}-BETA-D-RIBOFURANOSYL]OXY}-2-HYDROXYCYCLOHEXYL]-2-HYDROXYBUTANAMIDE

>  <Type>
NON-POLYMER

>  <Formula>
C37 H65 N7 O16

>  <MolecularWeight>
863.949

>  <ModifiedDate>
2011-06-04

>  <Parent>


>  <OneLetterCode>


>  <SubcomponentList>


>  <AmbiguousFlag>


>  <InChI>
InChI=1S/C37H65N7O16/c38-8-6-19(47)34(53)44-18-12-17(40)30(58-36-24(42)29(52)27(50)21(14-45)56-36)32(25(18)48)60-37-33(54-11-10-43-9-7-16-4-2-1-3-5-16)31(22(15-46)57-37)59-35-23(41)28(51)26(49)20(13-39)55-35/h1-5,17-33,35-37,43,45-52H,6-15,38-42H2,(H,44,53)/t17-,18+,19-,20-,21+,22+,23+,24+,25-,26+,27+,28+,29+,30+,31+,32+,33+,35+,36+,37-/m0/s1

>  <InChIKey>
KITFYJSEQIOMTC-AFTVZRPJSA-N

>  <SMILES>
c1ccc(cc1)CCNCCO[C@@H]2[C@@H]([C@H](O[C@H]2O[C@@H]3[C@H]([C@@H](C[C@@H]([C@H]3O[C@@H]4[C@@H]([C@H]([C@@H]([C@H](O4)CO)O)O)N)N)NC(=O)[C@H](CCN)O)O)CO)O[C@@H]5[C@@H]([C@H]([C@@H]([C@@H](O5)CN)O)O)N

$$$$
