REMARK  13 active torsions:
REMARK  status: ('A' for Active; 'I' for Inactive)
REMARK    1  A    between atoms: N_1  and  C_2 
REMARK    2  A    between atoms: C_2  and  C_3 
REMARK    3  A    between atoms: C_3  and  C_4 
REMARK    4  A    between atoms: C_4  and  N_5 
REMARK    5  A    between atoms: N_5  and  C_6 
REMARK    6  A    between atoms: C_6  and  C_7 
REMARK    7  A    between atoms: C_7  and  C_8 
REMARK    8  A    between atoms: C_8  and  C_9 
REMARK    9  A    between atoms: C_9  and  N_10 
REMARK   10  A    between atoms: N_10  and  C_11 
REMARK   11  A    between atoms: C_11  and  C_12 
REMARK   12  A    between atoms: C_12  and  C_13 
REMARK   13  A    between atoms: C_13  and  N_14 
ROOT
ATOM      1  C   UNL d   1       6.958  -0.515   4.242  0.00  0.00     0.032 C 
ENDROOT
BRANCH   1   2
ATOM      2  C   UNL d   1       6.455  -0.379   2.805  0.00  0.00     0.269 C 
BRANCH   2   3
ATOM      3  N   UNL d   1       4.992  -0.369   2.794  0.00  0.00     0.083 N 
ATOM      4  H   UNL d   1       4.639  -1.228   3.216  0.00  0.00     0.315 HD
BRANCH   3   5
ATOM      5  C   UNL d   1       4.481  -0.251   1.427  0.00  0.00     0.271 C 
BRANCH   5   6
ATOM      6  C   UNL d   1       2.952  -0.250   1.435  0.00  0.00     0.059 C 
BRANCH   6   7
ATOM      7  C   UNL d   1       2.409  -0.115   0.013  0.00  0.00     0.268 C 
BRANCH   7   8
ATOM      8  N   UNL d   1       0.950  -0.121   0.016  0.00  0.00     0.078 N 
ATOM      9  H   UNL d   1       0.609   0.036  -0.932  0.00  0.00     0.312 HD
ATOM     10  H   UNL d   1       0.606   0.659   0.575  0.00  0.00     0.312 HD
ENDBRANCH   7   8
ENDBRANCH   6   7
ENDBRANCH   5   6
ENDBRANCH   3   5
ENDBRANCH   2   3
ENDBRANCH   1   2
BRANCH   1  11
ATOM     11  C   UNL d   1       8.488  -0.512   4.289  0.00  0.00     0.032 C 
BRANCH  11  12
ATOM     12  C   UNL d   1       8.992  -0.647   5.726  0.00  0.00     0.269 C 
BRANCH  12  13
ATOM     13  N   UNL d   1      10.454  -0.655   5.737  0.00  0.00     0.083 N 
ATOM     14  H   UNL d   1      10.807   0.205   5.316  0.00  0.00     0.315 HD
BRANCH  13  15
ATOM     15  C   UNL d   1      10.965  -0.774   7.104  0.00  0.00     0.271 C 
BRANCH  15  16
ATOM     16  C   UNL d   1      12.495  -0.770   7.097  0.00  0.00     0.059 C 
BRANCH  16  17
ATOM     17  C   UNL d   1      13.037  -0.909   8.519  0.00  0.00     0.268 C 
BRANCH  17  18
ATOM     18  N   UNL d   1      14.496  -0.896   8.517  0.00  0.00     0.078 N 
ATOM     19  H   UNL d   1      14.844  -1.673   7.954  0.00  0.00     0.312 HD
ATOM     20  H   UNL d   1      14.837  -1.056   9.463  0.00  0.00     0.312 HD
ENDBRANCH  17  18
ENDBRANCH  16  17
ENDBRANCH  15  16
ENDBRANCH  13  15
ENDBRANCH  12  13
ENDBRANCH  11  12
ENDBRANCH   1  11
TORSDOF 13
