@<TRIPOS>MOLECULE
1FUF_SPM_B_98
 40 39 0 0 0
SMALL
GASTEIGER

@<TRIPOS>ATOM
      1 N           0.9503   -0.1209    0.0158 N.3     1  UNL1       -0.3299
      2 C           2.4088   -0.1147    0.0128 C.3     1  UNL1       -0.0058
      3 C           2.9516   -0.2501    1.4348 C.3     1  UNL1       -0.0281
      4 C           4.4814   -0.2505    1.4273 C.3     1  UNL1       -0.0030
      5 N           4.9918   -0.3687    2.7940 N.3     1  UNL1       -0.3159
      6 C           6.4546   -0.3785    2.8052 C.3     1  UNL1       -0.0041
      7 C           6.9584   -0.5149    4.2419 C.3     1  UNL1       -0.0393
      8 C           8.4879   -0.5119    4.2889 C.3     1  UNL1       -0.0393
      9 C           8.9917   -0.6474    5.7258 C.3     1  UNL1       -0.0041
     10 N          10.4544   -0.6553    5.7373 N.3     1  UNL1       -0.3159
     11 C          10.9648   -0.7737    7.1039 C.3     1  UNL1       -0.0030
     12 C          12.4947   -0.7698    7.0971 C.3     1  UNL1       -0.0281
     13 C          13.0374   -0.9086    8.5188 C.3     1  UNL1       -0.0058
     14 N          14.4959   -0.8965    8.5165 N.3     1  UNL1       -0.3299
     15 H           0.6089    0.0360   -0.9317 H       1  UNL1        0.1182
     16 H           0.6061    0.6590    0.5754 H       1  UNL1        0.1182
     17 H           2.7659    0.8162   -0.4414 H       1  UNL1        0.0422
     18 H           2.7655   -0.9451   -0.6060 H       1  UNL1        0.0422
     19 H           2.5811   -1.1798    1.8860 H       1  UNL1        0.0290
     20 H           2.5846    0.5790    2.0539 H       1  UNL1        0.0290
     21 H           4.8409    0.6825    0.9771 H       1  UNL1        0.0424
     22 H           4.8437   -1.0850    0.8149 H       1  UNL1        0.0424
     23 H           4.6386   -1.2282    3.2159 H       1  UNL1        0.1219
     24 H           6.8365    0.5546    2.3743 H       1  UNL1        0.0424
     25 H           6.8344   -1.2124    2.2029 H       1  UNL1        0.0424
     26 H           6.5809   -1.4463    4.6828 H       1  UNL1        0.0278
     27 H           6.5720    0.3117    4.8517 H       1  UNL1        0.0278
     28 H           8.8654    0.4192    3.8478 H       1  UNL1        0.0278
     29 H           8.8744   -1.3389    3.6797 H       1  UNL1        0.0278
     30 H           8.6107   -1.5807    6.1571 H       1  UNL1        0.0424
     31 H           8.6109    0.1863    6.3279 H       1  UNL1        0.0424
     32 H          10.8067    0.2053    5.3163 H       1  UNL1        0.1219
     33 H          10.6078   -1.7083    7.5528 H       1  UNL1        0.0424
     34 H          10.6001    0.0589    7.7176 H       1  UNL1        0.0424
     35 H          12.8626    0.1625    6.6491 H       1  UNL1        0.0290
     36 H          12.8643   -1.5957    6.4754 H       1  UNL1        0.0290
     37 H          12.6838   -1.8428    8.9690 H       1  UNL1        0.0422
     38 H          12.6770   -0.0821    9.1408 H       1  UNL1        0.0422
     39 H          14.8435   -1.6726    7.9537 H       1  UNL1        0.1182
     40 H          14.8374   -1.0561    9.4635 H       1  UNL1        0.1182
@<TRIPOS>BOND
     1     1     2    1
     2     1    15    1
     3     1    16    1
     4     2     3    1
     5     2    17    1
     6     2    18    1
     7     3     4    1
     8     3    19    1
     9     3    20    1
    10     4     5    1
    11     4    21    1
    12     4    22    1
    13     5     6    1
    14     5    23    1
    15     6     7    1
    16     6    24    1
    17     6    25    1
    18     7     8    1
    19     7    26    1
    20     7    27    1
    21     8     9    1
    22     8    28    1
    23     8    29    1
    24     9    10    1
    25     9    30    1
    26     9    31    1
    27    10    11    1
    28    10    32    1
    29    11    12    1
    30    11    33    1
    31    11    34    1
    32    12    13    1
    33    12    35    1
    34    12    36    1
    35    13    14    1
    36    13    37    1
    37    13    38    1
    38    14    39    1
    39    14    40    1
