1FUF_SPM_B_98
 OpenBabel03221816523D

 40 39  0  0  0  0  0  0  0  0999 V2000
    0.9503   -0.1209    0.0158 N   0  0  0  0  0  0  0  0  0  0  0  0
    2.4088   -0.1147    0.0128 C   0  0  0  0  0  0  0  0  0  0  0  0
    2.9516   -0.2501    1.4348 C   0  0  0  0  0  0  0  0  0  0  0  0
    4.4814   -0.2505    1.4273 C   0  0  0  0  0  0  0  0  0  0  0  0
    4.9918   -0.3687    2.7940 N   0  0  0  0  0  0  0  0  0  0  0  0
    6.4546   -0.3785    2.8052 C   0  0  0  0  0  0  0  0  0  0  0  0
    6.9584   -0.5149    4.2419 C   0  0  0  0  0  0  0  0  0  0  0  0
    8.4879   -0.5119    4.2889 C   0  0  0  0  0  0  0  0  0  0  0  0
    8.9917   -0.6474    5.7258 C   0  0  0  0  0  0  0  0  0  0  0  0
   10.4544   -0.6553    5.7373 N   0  0  0  0  0  0  0  0  0  0  0  0
   10.9648   -0.7737    7.1039 C   0  0  0  0  0  0  0  0  0  0  0  0
   12.4947   -0.7698    7.0971 C   0  0  0  0  0  0  0  0  0  0  0  0
   13.0374   -0.9086    8.5188 C   0  0  0  0  0  0  0  0  0  0  0  0
   14.4959   -0.8965    8.5165 N   0  0  0  0  0  0  0  0  0  0  0  0
    0.6089    0.0360   -0.9317 H   0  0  0  0  0  0  0  0  0  0  0  0
    0.6061    0.6590    0.5754 H   0  0  0  0  0  0  0  0  0  0  0  0
    2.7659    0.8162   -0.4414 H   0  0  0  0  0  0  0  0  0  0  0  0
    2.7655   -0.9451   -0.6060 H   0  0  0  0  0  0  0  0  0  0  0  0
    2.5811   -1.1798    1.8860 H   0  0  0  0  0  0  0  0  0  0  0  0
    2.5846    0.5790    2.0539 H   0  0  0  0  0  0  0  0  0  0  0  0
    4.8409    0.6825    0.9771 H   0  0  0  0  0  0  0  0  0  0  0  0
    4.8437   -1.0850    0.8149 H   0  0  0  0  0  0  0  0  0  0  0  0
    4.6386   -1.2282    3.2159 H   0  0  0  0  0  0  0  0  0  0  0  0
    6.8365    0.5546    2.3743 H   0  0  0  0  0  0  0  0  0  0  0  0
    6.8344   -1.2124    2.2029 H   0  0  0  0  0  0  0  0  0  0  0  0
    6.5809   -1.4463    4.6828 H   0  0  0  0  0  0  0  0  0  0  0  0
    6.5720    0.3117    4.8517 H   0  0  0  0  0  0  0  0  0  0  0  0
    8.8654    0.4192    3.8478 H   0  0  0  0  0  0  0  0  0  0  0  0
    8.8744   -1.3389    3.6797 H   0  0  0  0  0  0  0  0  0  0  0  0
    8.6107   -1.5807    6.1571 H   0  0  0  0  0  0  0  0  0  0  0  0
    8.6109    0.1863    6.3279 H   0  0  0  0  0  0  0  0  0  0  0  0
   10.8067    0.2053    5.3163 H   0  0  0  0  0  0  0  0  0  0  0  0
   10.6078   -1.7083    7.5528 H   0  0  0  0  0  0  0  0  0  0  0  0
   10.6001    0.0589    7.7176 H   0  0  0  0  0  0  0  0  0  0  0  0
   12.8626    0.1625    6.6491 H   0  0  0  0  0  0  0  0  0  0  0  0
   12.8643   -1.5957    6.4754 H   0  0  0  0  0  0  0  0  0  0  0  0
   12.6838   -1.8428    8.9690 H   0  0  0  0  0  0  0  0  0  0  0  0
   12.6770   -0.0821    9.1408 H   0  0  0  0  0  0  0  0  0  0  0  0
   14.8435   -1.6726    7.9537 H   0  0  0  0  0  0  0  0  0  0  0  0
   14.8374   -1.0561    9.4635 H   0  0  0  0  0  0  0  0  0  0  0  0
  1  2  1  0  0  0  0
  1 15  1  0  0  0  0
  1 16  1  0  0  0  0
  2  3  1  0  0  0  0
  2 17  1  0  0  0  0
  2 18  1  0  0  0  0
  3  4  1  0  0  0  0
  3 19  1  0  0  0  0
  3 20  1  0  0  0  0
  4  5  1  0  0  0  0
  4 21  1  0  0  0  0
  4 22  1  0  0  0  0
  5  6  1  0  0  0  0
  5 23  1  0  0  0  0
  6  7  1  0  0  0  0
  6 24  1  0  0  0  0
  6 25  1  0  0  0  0
  7  8  1  0  0  0  0
  7 26  1  0  0  0  0
  7 27  1  0  0  0  0
  8  9  1  0  0  0  0
  8 28  1  0  0  0  0
  8 29  1  0  0  0  0
  9 10  1  0  0  0  0
  9 30  1  0  0  0  0
  9 31  1  0  0  0  0
 10 11  1  0  0  0  0
 10 32  1  0  0  0  0
 11 12  1  0  0  0  0
 11 33  1  0  0  0  0
 11 34  1  0  0  0  0
 12 13  1  0  0  0  0
 12 35  1  0  0  0  0
 12 36  1  0  0  0  0
 13 14  1  0  0  0  0
 13 37  1  0  0  0  0
 13 38  1  0  0  0  0
 14 39  1  0  0  0  0
 14 40  1  0  0  0  0
M  END
$$$$
