REMARK  9 active torsions:
REMARK  status: ('A' for Active; 'I' for Inactive)
REMARK    1  A    between atoms: C_1  and  O_2 
REMARK    2  A    between atoms: C_18  and  O_2 
REMARK    3  A    between atoms: C_9  and  C_11 
REMARK    4  A    between atoms: C_19  and  O_20 
REMARK    5  A    between atoms: C_23  and  O_20 
REMARK    6  A    between atoms: C_26  and  O_27 
REMARK    7  A    between atoms: C_32  and  O_27 
REMARK    8  A    between atoms: C_28  and  C_30 
REMARK    9  A    between atoms: C_39  and  C_41 
ROOT
ATOM      1  C   UNL d   1       3.535   7.864  23.025  0.00  0.00     0.337 C 
ATOM      2  N   UNL d   1       2.949   7.993  21.678  0.00  0.00     0.619 N 
ATOM      3  C   UNL d   1       4.979   8.404  23.010  0.00  0.00     0.084 C 
ATOM      4  C   UNL d   1       5.651   8.324  24.408  0.00  0.00     0.333 C 
ATOM      5  N   UNL d   1       7.047   8.787  24.265  0.00  0.00     0.619 N 
ATOM      6  C   UNL d   1       5.585   6.885  25.035  0.00  0.00     0.184 C 
ATOM      7  C   UNL d   1       4.157   6.237  24.930  0.00  0.00     0.180 C 
ATOM      8  C   UNL d   1       3.519   6.396  23.515  0.00  0.00     0.218 C 
ATOM      9  O   UNL d   1       2.170   5.934  23.565  0.00  0.00    -0.218 OA
ENDROOT
BRANCH   7  10
ATOM     10  O   UNL d   1       4.282   4.820  25.218  0.00  0.00    -0.326 OA
BRANCH  10  11
ATOM     11  C   UNL d   1       3.144   4.122  25.799  0.00  0.00     0.270 C 
ATOM     12  C   UNL d   1       3.099   2.694  25.249  0.00  0.00     0.238 C 
ATOM     13  O   UNL d   1       2.212   2.641  24.131  0.00  0.00    -0.215 OA
ATOM     14  C   UNL d   1       2.537   1.916  26.442  0.00  0.00     0.183 C 
ATOM     15  C   UNL d   1       3.173   2.648  27.632  0.00  0.00     0.181 C 
ATOM     16  O   UNL d   1       3.314   4.022  27.222  0.00  0.00    -0.326 OA
BRANCH  14  17
ATOM     17  O   UNL d   1       1.086   2.000  26.506  0.00  0.00    -0.326 OA
BRANCH  17  18
ATOM     18  C   UNL d   1       0.349   0.759  26.353  0.00  0.00     0.277 C 
ATOM     19  C   UNL d   1      -0.063   0.522  24.868  0.00  0.00     0.390 C 
ATOM     20  N   UNL d   1      -0.662   1.726  24.242  0.00  0.00     0.624 N 
ATOM     21  C   UNL d   1      -1.009  -0.712  24.744  0.00  0.00     0.227 C 
ATOM     22  O   UNL d   1      -0.237  -1.896  24.933  0.00  0.00    -0.218 OA
ATOM     23  C   UNL d   1      -2.179  -0.723  25.774  0.00  0.00     0.214 C 
ATOM     24  O   UNL d   1      -3.135   0.265  25.386  0.00  0.00    -0.218 OA
ATOM     25  C   UNL d   1      -1.653  -0.428  27.213  0.00  0.00     0.190 C 
ATOM     26  O   UNL d   1      -0.849   0.791  27.201  0.00  0.00    -0.327 OA
BRANCH  25  27
ATOM     27  C   UNL d   1      -2.797  -0.269  28.247  0.00  0.00     0.370 C 
ATOM     28  N   UNL d   1      -2.759  -1.307  29.293  0.00  0.00     0.621 N 
ENDBRANCH  25  27
ENDBRANCH  17  18
ENDBRANCH  14  17
BRANCH  15  29
ATOM     29  C   UNL d   1       4.543   2.072  28.032  0.00  0.00     0.214 C 
ATOM     30  O   UNL d   1       5.099   2.797  29.115  0.00  0.00    -0.218 OA
ENDBRANCH  15  29
ENDBRANCH  10  11
ENDBRANCH   7  10
BRANCH   6  31
ATOM     31  O   UNL d   1       5.956   7.009  26.438  0.00  0.00    -0.327 OA
BRANCH  31  32
ATOM     32  C   UNL d   1       6.763   5.963  27.052  0.00  0.00     0.277 C 
ATOM     33  C   UNL d   1       6.503   5.868  28.590  0.00  0.00     0.390 C 
ATOM     34  N   UNL d   1       5.057   5.780  28.885  0.00  0.00     0.624 N 
ATOM     35  C   UNL d   1       7.135   7.084  29.337  0.00  0.00     0.227 C 
ATOM     36  O   UNL d   1       7.029   6.904  30.747  0.00  0.00    -0.218 OA
ATOM     37  C   UNL d   1       8.630   7.269  28.975  0.00  0.00     0.214 C 
ATOM     38  O   UNL d   1       9.121   8.444  29.613  0.00  0.00    -0.218 OA
ATOM     39  C   UNL d   1       8.804   7.370  27.433  0.00  0.00     0.184 C 
ATOM     40  O   UNL d   1       8.189   6.205  26.805  0.00  0.00    -0.326 OA
BRANCH  39  41
ATOM     41  C   UNL d   1      10.270   7.412  26.947  0.00  0.00     0.214 C 
ATOM     42  O   UNL d   1      11.053   6.418  27.586  0.00  0.00    -0.218 OA
ENDBRANCH  39  41
ENDBRANCH  31  32
ENDBRANCH   6  31
TORSDOF 9
