@<TRIPOS>MOLECULE
1FYP_PAR_A_28
 42 45 0 0 0
SMALL
GASTEIGER
****
Coordinates from PDB:1FYP:A:28 Model:1 without hydrogens
@<TRIPOS>ATOM
      1 C           6.7630    5.9630   27.0520 C.3     1  UNL1        0.2561
      2 O           5.9560    7.0090   26.4380 O.3     1  UNL1       -0.3278
      3 C           6.5030    5.8680   28.5900 C.3     1  UNL1        0.1807
      4 N           5.0570    5.7800   28.8850 N.3     1  UNL1       -0.1248
      5 C           7.1350    7.0840   29.3370 C.3     1  UNL1        0.2070
      6 O           7.0290    6.9040   30.7470 O.3     1  UNL1       -0.2186
      7 C           8.6300    7.2690   28.9750 C.3     1  UNL1        0.2133
      8 O           9.1210    8.4440   29.6130 O.3     1  UNL1       -0.2176
      9 C           8.8040    7.3700   27.4330 C.3     1  UNL1        0.1834
     10 O           8.1890    6.2050   26.8050 O.3     1  UNL1       -0.3264
     11 C          10.2700    7.4120   26.9470 C.3     1  UNL1        0.2142
     12 O          11.0530    6.4180   27.5860 O.3     1  UNL1       -0.2176
     13 C           3.5350    7.8640   23.0250 C.3     1  UNL1        0.1261
     14 N           2.9490    7.9930   21.6780 N.3     1  UNL1       -0.1301
     15 C           4.9790    8.4040   23.0100 C.3     1  UNL1        0.0433
     16 C           5.6510    8.3240   24.4080 C.3     1  UNL1        0.1230
     17 N           7.0470    8.7870   24.2650 N.3     1  UNL1       -0.1302
     18 C           5.5850    6.8850   25.0350 C.3     1  UNL1        0.1649
     19 C           4.1570    6.2370   24.9300 C.3     1  UNL1        0.1779
     20 O           4.2820    4.8200   25.2180 O.3     1  UNL1       -0.3258
     21 C           3.5190    6.3960   23.5150 C.3     1  UNL1        0.1989
     22 O           2.1700    5.9340   23.5650 O.3     1  UNL1       -0.2189
     23 C           3.1440    4.1220   25.7990 C.3     1  UNL1        0.2694
     24 C           3.0990    2.6940   25.2490 C.3     1  UNL1        0.2373
     25 O           2.2120    2.6410   24.1310 O.3     1  UNL1       -0.2150
     26 C           2.5370    1.9160   26.4420 C.3     1  UNL1        0.1827
     27 O           1.0860    2.0000   26.5060 O.3     1  UNL1       -0.3265
     28 C           3.1730    2.6480   27.6320 C.3     1  UNL1        0.1804
     29 O           3.3140    4.0220   27.2220 O.3     1  UNL1       -0.3257
     30 C           4.5430    2.0720   28.0320 C.3     1  UNL1        0.2141
     31 O           5.0990    2.7970   29.1150 O.3     1  UNL1       -0.2176
     32 C           0.3490    0.7590   26.3530 C.3     1  UNL1        0.2561
     33 C          -0.0630    0.5220   24.8680 C.3     1  UNL1        0.1807
     34 N          -0.6620    1.7260   24.2420 N.3     1  UNL1       -0.1248
     35 C          -1.0090   -0.7120   24.7440 C.3     1  UNL1        0.2070
     36 O          -0.2370   -1.8960   24.9330 O.3     1  UNL1       -0.2186
     37 C          -2.1790   -0.7230   25.7740 C.3     1  UNL1        0.2122
     38 O          -3.1350    0.2650   25.3860 O.3     1  UNL1       -0.2177
     39 C          -1.6530   -0.4280   27.2130 C.3     1  UNL1        0.1696
     40 O          -0.8490    0.7910   27.2010 O.3     1  UNL1       -0.3276
     41 C          -2.7970   -0.2690   28.2470 C.3     1  UNL1        0.1415
     42 N          -2.7590   -1.3070   29.2930 N.3     1  UNL1       -0.1286
@<TRIPOS>BOND
     1     1     2    1
     2     1     3    1
     3     1    10    1
     4     3     4    1
     5     3     5    1
     6     5     6    1
     7     5     7    1
     8     7     8    1
     9     7     9    1
    10     9    10    1
    11     9    11    1
    12    11    12    1
    13    13    14    1
    14    13    15    1
    15    13    21    1
    16    15    16    1
    17    16    17    1
    18    16    18    1
    19    18     2    1
    20    18    19    1
    21    19    20    1
    22    19    21    1
    23    21    22    1
    24    23    20    1
    25    23    24    1
    26    23    29    1
    27    24    25    1
    28    24    26    1
    29    26    27    1
    30    26    28    1
    31    28    29    1
    32    28    30    1
    33    30    31    1
    34    32    27    1
    35    32    33    1
    36    32    40    1
    37    33    34    1
    38    33    35    1
    39    35    36    1
    40    35    37    1
    41    37    38    1
    42    37    39    1
    43    39    40    1
    44    39    41    1
    45    41    42    1
