1FYP_PAR_A_28
 OpenBabel10091713573D
Coordinates from PDB:1FYP:A:28 Model:1 without hydrogens
 87 90  0  0  1  0  0  0  0  0999 V2000
    6.7630    5.9630   27.0520 C   0  0  2  0  0  0  0  0  0  0  0  0
    5.9560    7.0090   26.4380 O   0  0  0  0  0  0  0  0  0  0  0  0
    6.5030    5.8680   28.5900 C   0  0  2  0  0  0  0  0  0  0  0  0
    5.0570    5.7800   28.8850 N   0  0  0  0  0  0  0  0  0  0  0  0
    7.1350    7.0840   29.3370 C   0  0  1  0  0  0  0  0  0  0  0  0
    7.0290    6.9040   30.7470 O   0  0  0  0  0  0  0  0  0  0  0  0
    8.6300    7.2690   28.9750 C   0  0  2  0  0  0  0  0  0  0  0  0
    9.1210    8.4440   29.6130 O   0  0  0  0  0  0  0  0  0  0  0  0
    8.8040    7.3700   27.4330 C   0  0  2  0  0  0  0  0  0  0  0  0
    8.1890    6.2050   26.8050 O   0  0  0  0  0  0  0  0  0  0  0  0
   10.2700    7.4120   26.9470 C   0  0  0  0  0  0  0  0  0  0  0  0
   11.0530    6.4180   27.5860 O   0  0  0  0  0  0  0  0  0  0  0  0
    3.5350    7.8640   23.0250 C   0  0  2  0  0  0  0  0  0  0  0  0
    2.9490    7.9930   21.6780 N   0  0  0  0  0  0  0  0  0  0  0  0
    4.9790    8.4040   23.0100 C   0  0  0  0  0  0  0  0  0  0  0  0
    5.6510    8.3240   24.4080 C   0  0  2  0  0  0  0  0  0  0  0  0
    7.0470    8.7870   24.2650 N   0  0  0  0  0  0  0  0  0  0  0  0
    5.5850    6.8850   25.0350 C   0  0  2  0  0  0  0  0  0  0  0  0
    4.1570    6.2370   24.9300 C   0  0  2  0  0  0  0  0  0  0  0  0
    4.2820    4.8200   25.2180 O   0  0  0  0  0  0  0  0  0  0  0  0
    3.5190    6.3960   23.5150 C   0  0  1  0  0  0  0  0  0  0  0  0
    2.1700    5.9340   23.5650 O   0  0  0  0  0  0  0  0  0  0  0  0
    3.1440    4.1220   25.7990 C   0  0  1  0  0  0  0  0  0  0  0  0
    3.0990    2.6940   25.2490 C   0  0  2  0  0  0  0  0  0  0  0  0
    2.2120    2.6410   24.1310 O   0  0  0  0  0  0  0  0  0  0  0  0
    2.5370    1.9160   26.4420 C   0  0  2  0  0  0  0  0  0  0  0  0
    1.0860    2.0000   26.5060 O   0  0  0  0  0  0  0  0  0  0  0  0
    3.1730    2.6480   27.6320 C   0  0  2  0  0  0  0  0  0  0  0  0
    3.3140    4.0220   27.2220 O   0  0  0  0  0  0  0  0  0  0  0  0
    4.5430    2.0720   28.0320 C   0  0  0  0  0  0  0  0  0  0  0  0
    5.0990    2.7970   29.1150 O   0  0  0  0  0  0  0  0  0  0  0  0
    0.3490    0.7590   26.3530 C   0  0  2  0  0  0  0  0  0  0  0  0
   -0.0630    0.5220   24.8680 C   0  0  2  0  0  0  0  0  0  0  0  0
   -0.6620    1.7260   24.2420 N   0  0  0  0  0  0  0  0  0  0  0  0
   -1.0090   -0.7120   24.7440 C   0  0  1  0  0  0  0  0  0  0  0  0
   -0.2370   -1.8960   24.9330 O   0  0  0  0  0  0  0  0  0  0  0  0
   -2.1790   -0.7230   25.7740 C   0  0  2  0  0  0  0  0  0  0  0  0
   -3.1350    0.2650   25.3860 O   0  0  0  0  0  0  0  0  0  0  0  0
   -1.6530   -0.4280   27.2130 C   0  0  1  0  0  0  0  0  0  0  0  0
   -0.8490    0.7910   27.2010 O   0  0  0  0  0  0  0  0  0  0  0  0
   -2.7970   -0.2690   28.2470 C   0  0  0  0  0  0  0  0  0  0  0  0
   -2.7590   -1.3070   29.2930 N   0  0  0  0  0  0  0  0  0  0  0  0
    6.4785    5.0330   26.6059 H   0  0  0  0  0  0  0  0  0  0  0  0
    6.9702    4.9718   28.9415 H   0  0  0  0  0  0  0  0  0  0  0  0
    4.5911    6.6262   28.5575 H   0  0  0  0  0  0  0  0  0  0  0  0
    4.9205    5.6845   29.8913 H   0  0  0  0  0  0  0  0  0  0  0  0
    6.5962    7.9559   29.0298 H   0  0  0  0  0  0  0  0  0  0  0  0
    7.5218    6.1109   31.0097 H   0  0  0  0  0  0  0  0  0  0  0  0
    9.1886    6.4224   29.3157 H   0  0  0  0  0  0  0  0  0  0  0  0
    8.6164    9.2135   29.3061 H   0  0  0  0  0  0  0  0  0  0  0  0
    8.3436    8.2964   27.1596 H   0  0  0  0  0  0  0  0  0  0  0  0
   10.6824    8.3747   27.1660 H   0  0  0  0  0  0  0  0  0  0  0  0
   10.2820    7.2259   25.8934 H   0  0  0  0  0  0  0  0  0  0  0  0
   11.0527    6.5723   28.5437 H   0  0  0  0  0  0  0  0  0  0  0  0
    2.9413    8.4374   23.7059 H   0  0  0  0  0  0  0  0  0  0  0  0
    3.5023    7.4522   21.0133 H   0  0  0  0  0  0  0  0  0  0  0  0
    2.9479    8.9745   21.4003 H   0  0  0  0  0  0  0  0  0  0  0  0
    4.9611    9.4263   22.6945 H   0  0  0  0  0  0  0  0  0  0  0  0
    5.5489    7.7980   22.3370 H   0  0  0  0  0  0  0  0  0  0  0  0
    5.1155    8.9519   25.0891 H   0  0  0  0  0  0  0  0  0  0  0  0
    7.5421    8.1782   23.6134 H   0  0  0  0  0  0  0  0  0  0  0  0
    7.5091    8.7596   25.1739 H   0  0  0  0  0  0  0  0  0  0  0  0
    6.2503    6.2448   24.4942 H   0  0  0  0  0  0  0  0  0  0  0  0
    3.5200    6.7395   25.6276 H   0  0  0  0  0  0  0  0  0  0  0  0
    4.0994    5.8194   22.8254 H   0  0  0  0  0  0  0  0  0  0  0  0
    1.6670    6.4723   24.1960 H   0  0  0  0  0  0  0  0  0  0  0  0
    2.2499    4.6591   25.5605 H   0  0  0  0  0  0  0  0  0  0  0  0
    4.0371    2.3148   24.9011 H   0  0  0  0  0  0  0  0  0  0  0  0
    1.3404    2.9761   24.3936 H   0  0  0  0  0  0  0  0  0  0  0  0
    2.7539    0.8690   26.4018 H   0  0  0  0  0  0  0  0  0  0  0  0
    2.5527    2.5371   28.4968 H   0  0  0  0  0  0  0  0  0  0  0  0
    5.2059    2.1304   27.1941 H   0  0  0  0  0  0  0  0  0  0  0  0
    4.4112    1.0539   28.3336 H   0  0  0  0  0  0  0  0  0  0  0  0
    5.2237    3.7229   28.8542 H   0  0  0  0  0  0  0  0  0  0  0  0
    0.9857   -0.0471   26.6526 H   0  0  0  0  0  0  0  0  0  0  0  0
    0.8353    0.3142   24.3251 H   0  0  0  0  0  0  0  0  0  0  0  0
   -1.5266    1.9668   24.7267 H   0  0  0  0  0  0  0  0  0  0  0  0
   -0.8644    1.5341   23.2609 H   0  0  0  0  0  0  0  0  0  0  0  0
   -1.4518   -0.6605   23.7713 H   0  0  0  0  0  0  0  0  0  0  0  0
    0.1418   -1.8959   25.8260 H   0  0  0  0  0  0  0  0  0  0  0  0
   -2.6352   -1.6908   25.7850 H   0  0  0  0  0  0  0  0  0  0  0  0
   -2.7128    1.1383   25.3789 H   0  0  0  0  0  0  0  0  0  0  0  0
   -1.0629   -1.2699   27.5095 H   0  0  0  0  0  0  0  0  0  0  0  0
   -3.7342   -0.3320   27.7346 H   0  0  0  0  0  0  0  0  0  0  0  0
   -2.6740    0.6802   28.7254 H   0  0  0  0  0  0  0  0  0  0  0  0
   -2.8742   -2.2256   28.8648 H   0  0  0  0  0  0  0  0  0  0  0  0
   -3.5139   -1.1456   29.9597 H   0  0  0  0  0  0  0  0  0  0  0  0
  1  2  1  0  0  0  0
  1  3  1  0  0  0  0
  1 10  1  0  0  0  0
  1 43  1  6  0  0  0
  2 18  1  0  0  0  0
  3  4  1  0  0  0  0
  3  5  1  0  0  0  0
  3 44  1  1  0  0  0
  4 45  1  0  0  0  0
  4 46  1  0  0  0  0
  5  6  1  0  0  0  0
  5  7  1  0  0  0  0
  5 47  1  6  0  0  0
  6 48  1  0  0  0  0
  7  8  1  0  0  0  0
  7  9  1  0  0  0  0
  7 49  1  1  0  0  0
  8 50  1  0  0  0  0
  9 10  1  0  0  0  0
  9 11  1  0  0  0  0
  9 51  1  6  0  0  0
 11 12  1  0  0  0  0
 11 52  1  0  0  0  0
 11 53  1  0  0  0  0
 12 54  1  0  0  0  0
 13 14  1  0  0  0  0
 13 15  1  0  0  0  0
 13 21  1  0  0  0  0
 13 55  1  1  0  0  0
 14 56  1  0  0  0  0
 14 57  1  0  0  0  0
 15 16  1  0  0  0  0
 15 58  1  0  0  0  0
 15 59  1  0  0  0  0
 16 17  1  0  0  0  0
 16 18  1  0  0  0  0
 16 60  1  1  0  0  0
 17 61  1  0  0  0  0
 17 62  1  0  0  0  0
 18 19  1  0  0  0  0
 18 63  1  6  0  0  0
 19 20  1  0  0  0  0
 19 21  1  0  0  0  0
 19 64  1  1  0  0  0
 20 23  1  0  0  0  0
 21 22  1  0  0  0  0
 21 65  1  6  0  0  0
 22 66  1  0  0  0  0
 23 24  1  0  0  0  0
 23 29  1  0  0  0  0
 23 67  1  6  0  0  0
 24 25  1  0  0  0  0
 24 26  1  0  0  0  0
 24 68  1  6  0  0  0
 25 69  1  0  0  0  0
 26 27  1  0  0  0  0
 26 28  1  0  0  0  0
 26 70  1  6  0  0  0
 27 32  1  0  0  0  0
 28 29  1  0  0  0  0
 28 30  1  0  0  0  0
 28 71  1  1  0  0  0
 30 31  1  0  0  0  0
 30 72  1  0  0  0  0
 30 73  1  0  0  0  0
 31 74  1  0  0  0  0
 32 33  1  0  0  0  0
 32 40  1  0  0  0  0
 32 75  1  1  0  0  0
 33 34  1  0  0  0  0
 33 35  1  0  0  0  0
 33 76  1  6  0  0  0
 34 77  1  0  0  0  0
 34 78  1  0  0  0  0
 35 36  1  0  0  0  0
 35 37  1  0  0  0  0
 35 79  1  6  0  0  0
 36 80  1  0  0  0  0
 37 38  1  0  0  0  0
 37 39  1  0  0  0  0
 37 81  1  6  0  0  0
 38 82  1  0  0  0  0
 39 40  1  0  0  0  0
 39 41  1  0  0  0  0
 39 83  1  1  0  0  0
 41 42  1  0  0  0  0
 41 84  1  0  0  0  0
 41 85  1  0  0  0  0
 42 86  1  0  0  0  0
 42 87  1  0  0  0  0
M  END
$$$$
