1FYP_PAR_A_28
 OpenBabel10091713573D
Coordinates from PDB:1FYP:A:28 Model:1 without hydrogens
 42 45  0  0  0  0  0  0  0  0999 V2000
    6.7630    5.9630   27.0520 C   0  0  2  0  0  0  0  0  0  0  0  0
    5.9560    7.0090   26.4380 O   0  0  0  0  0  0  0  0  0  0  0  0
    6.5030    5.8680   28.5900 C   0  0  2  0  0  0  0  0  0  0  0  0
    5.0570    5.7800   28.8850 N   0  0  0  0  0  0  0  0  0  0  0  0
    7.1350    7.0840   29.3370 C   0  0  1  0  0  0  0  0  0  0  0  0
    7.0290    6.9040   30.7470 O   0  0  0  0  0  0  0  0  0  0  0  0
    8.6300    7.2690   28.9750 C   0  0  2  0  0  0  0  0  0  0  0  0
    9.1210    8.4440   29.6130 O   0  0  0  0  0  0  0  0  0  0  0  0
    8.8040    7.3700   27.4330 C   0  0  2  0  0  0  0  0  0  0  0  0
    8.1890    6.2050   26.8050 O   0  0  0  0  0  0  0  0  0  0  0  0
   10.2700    7.4120   26.9470 C   0  0  0  0  0  0  0  0  0  0  0  0
   11.0530    6.4180   27.5860 O   0  0  0  0  0  0  0  0  0  0  0  0
    3.5350    7.8640   23.0250 C   0  0  2  0  0  0  0  0  0  0  0  0
    2.9490    7.9930   21.6780 N   0  0  0  0  0  0  0  0  0  0  0  0
    4.9790    8.4040   23.0100 C   0  0  0  0  0  0  0  0  0  0  0  0
    5.6510    8.3240   24.4080 C   0  0  2  0  0  0  0  0  0  0  0  0
    7.0470    8.7870   24.2650 N   0  0  0  0  0  0  0  0  0  0  0  0
    5.5850    6.8850   25.0350 C   0  0  2  0  0  0  0  0  0  0  0  0
    4.1570    6.2370   24.9300 C   0  0  2  0  0  0  0  0  0  0  0  0
    4.2820    4.8200   25.2180 O   0  0  0  0  0  0  0  0  0  0  0  0
    3.5190    6.3960   23.5150 C   0  0  1  0  0  0  0  0  0  0  0  0
    2.1700    5.9340   23.5650 O   0  0  0  0  0  0  0  0  0  0  0  0
    3.1440    4.1220   25.7990 C   0  0  1  0  0  0  0  0  0  0  0  0
    3.0990    2.6940   25.2490 C   0  0  2  0  0  0  0  0  0  0  0  0
    2.2120    2.6410   24.1310 O   0  0  0  0  0  0  0  0  0  0  0  0
    2.5370    1.9160   26.4420 C   0  0  2  0  0  0  0  0  0  0  0  0
    1.0860    2.0000   26.5060 O   0  0  0  0  0  0  0  0  0  0  0  0
    3.1730    2.6480   27.6320 C   0  0  2  0  0  0  0  0  0  0  0  0
    3.3140    4.0220   27.2220 O   0  0  0  0  0  0  0  0  0  0  0  0
    4.5430    2.0720   28.0320 C   0  0  0  0  0  0  0  0  0  0  0  0
    5.0990    2.7970   29.1150 O   0  0  0  0  0  0  0  0  0  0  0  0
    0.3490    0.7590   26.3530 C   0  0  2  0  0  0  0  0  0  0  0  0
   -0.0630    0.5220   24.8680 C   0  0  2  0  0  0  0  0  0  0  0  0
   -0.6620    1.7260   24.2420 N   0  0  0  0  0  0  0  0  0  0  0  0
   -1.0090   -0.7120   24.7440 C   0  0  1  0  0  0  0  0  0  0  0  0
   -0.2370   -1.8960   24.9330 O   0  0  0  0  0  0  0  0  0  0  0  0
   -2.1790   -0.7230   25.7740 C   0  0  2  0  0  0  0  0  0  0  0  0
   -3.1350    0.2650   25.3860 O   0  0  0  0  0  0  0  0  0  0  0  0
   -1.6530   -0.4280   27.2130 C   0  0  1  0  0  0  0  0  0  0  0  0
   -0.8490    0.7910   27.2010 O   0  0  0  0  0  0  0  0  0  0  0  0
   -2.7970   -0.2690   28.2470 C   0  0  0  0  0  0  0  0  0  0  0  0
   -2.7590   -1.3070   29.2930 N   0  0  0  0  0  0  0  0  0  0  0  0
  1  2  1  1  0  0  0
  1  3  1  0  0  0  0
  1 10  1  0  0  0  0
  3  4  1  6  0  0  0
  3  5  1  0  0  0  0
  5  6  1  1  0  0  0
  5  7  1  0  0  0  0
  7  8  1  1  0  0  0
  7  9  1  0  0  0  0
  9 10  1  0  0  0  0
  9 11  1  1  0  0  0
 11 12  1  0  0  0  0
 13 14  1  6  0  0  0
 13 15  1  0  0  0  0
 13 21  1  0  0  0  0
 15 16  1  0  0  0  0
 16 17  1  6  0  0  0
 16 18  1  0  0  0  0
 18  2  1  1  0  0  0
 18 19  1  0  0  0  0
 19 20  1  6  0  0  0
 19 21  1  0  0  0  0
 21 22  1  1  0  0  0
 23 20  1  6  0  0  0
 23 24  1  0  0  0  0
 23 29  1  0  0  0  0
 24 25  1  6  0  0  0
 24 26  1  0  0  0  0
 26 27  1  1  0  0  0
 26 28  1  0  0  0  0
 28 29  1  0  0  0  0
 28 30  1  6  0  0  0
 30 31  1  0  0  0  0
 32 27  1  6  0  0  0
 32 33  1  0  0  0  0
 32 40  1  0  0  0  0
 33 34  1  1  0  0  0
 33 35  1  0  0  0  0
 35 36  1  1  0  0  0
 35 37  1  0  0  0  0
 37 38  1  6  0  0  0
 37 39  1  0  0  0  0
 39 40  1  0  0  0  0
 39 41  1  1  0  0  0
 41 42  1  0  0  0  0
A    1
C11
A    2
O11
A    3
C21
A    4
N21
A    5
C31
A    6
O31
A    7
C41
A    8
O41
A    9
C51
A   10
O51
A   11
C61
A   12
O61
A   13
C12
A   14
N12
A   15
C22
A   16
C32
A   17
N32
A   18
C42
A   19
C52
A   20
O52
A   21
C62
A   22
O62
A   23
C13
A   24
C23
A   25
O23
A   26
C33
A   27
O33
A   28
C43
A   29
O43
A   30
C53
A   31
O53
A   32
C14
A   33
C24
A   34
N24
A   35
C34
A   36
O34
A   37
C44
A   38
O44
A   39
C54
A   40
O54
A   41
C64
A   42
N64
M  END
>  <InstanceId>
1FYP_PAR_A_28

>  <ChemCompId>
PAR

>  <PdbId>
1FYP

>  <ChainId>
A

>  <ResidueNumber>
28

>  <InsertionCode>


>  <Model>
1

>  <AltIds>


>  <MissingHeavyAtoms>
0

>  <ObservedFormula>
C23 N5 O14

>  <Name>
PAROMOMYCIN

>  <SystematicName>
(2R,3S,4R,5R,6S)-5-amino-6-[(1R,2R,3S,4R,6S)-4,6-diamino-2-[(2S,3R,4S,5R)-4-[(2R,3R,4R,5S,6S)-3-amino-6-(aminomethyl)-4,5-dihydroxy-oxan-2-yl]oxy-3-hydroxy-5-(hydroxymethyl)oxolan-2-yl]oxy-3-hydroxy-cyclohexyl]oxy-2-(hydroxymethyl)oxane-3,4-diol

>  <Synonyms>
PAROMOMYCIN I, AMMINOSIDIN, CATENULIN, CRESTOMYCIN, MONOMYCIN A, NEOMYCIN E

>  <Type>
NON-POLYMER

>  <Formula>
C23 H45 N5 O14

>  <MolecularWeight>
615.628

>  <ModifiedDate>
2011-06-04

>  <Parent>


>  <OneLetterCode>


>  <SubcomponentList>


>  <AmbiguousFlag>
N

>  <InChI>
InChI=1S/C23H45N5O14/c24-2-7-13(32)15(34)10(27)21(37-7)41-19-9(4-30)39-23(17(19)36)42-20-12(31)5(25)1-6(26)18(20)40-22-11(28)16(35)14(33)8(3-29)38-22/h5-23,29-36H,1-4,24-28H2/t5-,6+,7+,8-,9-,10-,11-,12+,13-,14-,15-,16-,17-,18-,19-,20-,21-,22-,23+/m1/s1

>  <InChIKey>
UOZODPSAJZTQNH-LSWIJEOBSA-N

>  <SMILES>
C1[C@H]([C@@H]([C@H]([C@@H]([C@H]1N)O[C@@H]2[C@@H]([C@H]([C@@H]([C@H](O2)CO)O)O)N)O[C@H]3[C@@H]([C@@H]([C@H](O3)CO)O[C@@H]4[C@@H]([C@H]([C@@H]([C@@H](O4)CN)O)O)N)O)O)N

$$$$
