@<TRIPOS>MOLECULE
ligands/ligand.pdb
 84 85 0 0 0
SMALL
GASTEIGER

@<TRIPOS>ATOM
      1 C         -12.2746   -5.8712   -4.8634 C.3     1  UNL1        0.1022
      2 H         -12.9618   -5.7904   -4.0125 H       1  UNL1        0.0636
      3 O         -11.0437   -5.3043   -4.3876 O.3     1  UNL1       -0.3425
      4 C         -10.0158   -5.1660   -5.3530 C.3     1  UNL1        0.1776
      5 H          -9.6952   -6.1492   -5.7140 H       1  UNL1        0.0927
      6 O          -8.8954   -4.5440   -4.7294 O.3     1  UNL1       -0.3422
      7 C          -8.0486   -5.3117   -3.8347 C.3     1  UNL1        0.1051
      8 H          -7.5791   -6.0688   -4.4787 H       1  UNL1        0.0639
      9 C          -6.9513   -4.3276   -3.3384 C.3     1  UNL1        0.1106
     10 H          -6.6141   -3.7293   -4.1928 H       1  UNL1        0.0646
     11 C          -7.5646   -3.3743   -2.2639 C.3     1  UNL1        0.1053
     12 H          -6.8739   -2.5405   -2.0935 H       1  UNL1        0.0641
     13 C          -7.8138   -4.1460   -0.9681 C.3     1  UNL1        0.0533
     14 H          -8.3043   -3.4611   -0.2838 H       1  UNL1        0.0525
     15 N          -6.6278   -4.5709   -0.2403 N.am    1  UNL1       -0.3077
     16 C          -6.5470   -4.4013    1.1293 C.2     1  UNL1        0.2420
     17 O          -7.4086   -3.8081    1.7752 O.2     1  UNL1       -0.2730
     18 C          -5.2784   -4.9772    1.7902 C.3     1  UNL1        0.1320
     19 H          -4.5419   -4.1635    1.7884 H       1  UNL1        0.0690
     20 O          -4.7121   -6.0712    1.0748 O.3     1  UNL1       -0.3825
     21 C          -5.5682   -5.3777    3.2477 C.3     1  UNL1       -0.0059
     22 C          -6.5941   -6.5133    3.3419 C.3     1  UNL1       -0.0041
     23 N          -6.8958   -6.8343    4.7308 N.3     1  UNL1       -0.3299
     24 C          -8.8210   -5.2854   -1.2451 C.3     1  UNL1       -0.0142
     25 C          -8.6331   -6.0720   -2.5734 C.3     1  UNL1        0.0358
     26 H          -9.6008   -6.5030   -2.8307 H       1  UNL1        0.0485
     27 N          -7.7420   -7.2191   -2.2322 N.3     1  UNL1       -0.3250
     28 O          -8.7963   -2.8725   -2.8136 O.3     1  UNL1       -0.3708
     29 C          -9.7389   -2.2331   -1.9714 C.3     1  UNL1        0.0607
     30 C          -9.3106   -0.7918   -1.7659 C.3     1  UNL1        0.0194
     31 N          -9.0899   -0.1251   -3.0606 N.3     1  UNL1       -0.3138
     32 C         -10.3048   -0.0481   -3.8859 C.3     1  UNL1       -0.0040
     33 C         -11.4782    0.6598   -3.2061 C.3     1  UNL1       -0.0393
     34 C         -11.0980    2.0760   -2.7770 C.3     1  UNL1       -0.0395
     35 C         -12.2081    2.7315   -1.9708 C.3     1  UNL1       -0.0069
     36 N         -11.8277    4.0986   -1.6418 N.3     1  UNL1       -0.3300
     37 O          -5.7963   -5.0204   -2.8277 O.3     1  UNL1       -0.3865
     38 C         -10.4931   -4.3243   -6.6226 C.3     1  UNL1        0.0853
     39 H          -9.7208   -4.4397   -7.3938 H       1  UNL1        0.0535
     40 N         -10.6565   -2.8565   -6.4666 N.3     1  UNL1       -0.3211
     41 C         -11.8351   -4.8867   -7.1587 C.3     1  UNL1        0.1033
     42 H         -12.2433   -4.2043   -7.9172 H       1  UNL1        0.0637
     43 O         -11.6560   -6.1423   -7.8223 O.3     1  UNL1       -0.3874
     44 C         -12.8635   -5.0400   -6.0232 C.3     1  UNL1        0.1100
     45 H         -13.7709   -5.5321   -6.3918 H       1  UNL1        0.0646
     46 O         -13.2636   -3.7527   -5.5212 O.3     1  UNL1       -0.3866
     47 C         -12.1434   -7.3712   -5.2306 C.3     1  UNL1        0.0222
     48 N         -11.7139   -8.2059   -4.1057 N.3     1  UNL1       -0.3276
     49 H          -5.8410   -4.9976   -0.7310 H       1  UNL1        0.1491
     50 H          -3.8604   -6.2698    1.5096 H       1  UNL1        0.2104
     51 H          -5.9292   -4.5054    3.8096 H       1  UNL1        0.0307
     52 H          -4.6345   -5.7009    3.7253 H       1  UNL1        0.0307
     53 H          -6.2085   -7.4118    2.8484 H       1  UNL1        0.0423
     54 H          -7.5275   -6.2367    2.8425 H       1  UNL1        0.0423
     55 H          -6.0664   -7.1729    5.2060 H       1  UNL1        0.1182
     56 H          -7.5940   -7.5782    4.7648 H       1  UNL1        0.1182
     57 H          -9.8321   -4.8686   -1.2648 H       1  UNL1        0.0300
     58 H          -8.8267   -5.9624   -0.3799 H       1  UNL1        0.0300
     59 H          -8.2875   -7.8632   -1.6497 H       1  UNL1        0.1185
     60 H          -7.0223   -6.8904   -1.5784 H       1  UNL1        0.1185
     61 H          -9.9138   -2.7317   -1.0183 H       1  UNL1        0.0572
     62 H         -10.7087   -2.2963   -2.4774 H       1  UNL1        0.0572
     63 H          -8.3596   -0.7781   -1.2218 H       1  UNL1        0.0446
     64 H         -10.0298   -0.2614   -1.1359 H       1  UNL1        0.0446
     65 H          -8.4265   -0.7162   -3.5721 H       1  UNL1        0.1220
     66 H         -10.6216   -1.0459   -4.2078 H       1  UNL1        0.0424
     67 H         -10.0468    0.4871   -4.8059 H       1  UNL1        0.0424
     68 H         -11.8333    0.0791   -2.3456 H       1  UNL1        0.0278
     69 H         -12.3208    0.6987   -3.9067 H       1  UNL1        0.0278
     70 H         -10.8711    2.6679   -3.6719 H       1  UNL1        0.0278
     71 H         -10.1861    2.0583   -2.1674 H       1  UNL1        0.0278
     72 H         -12.3827    2.1678   -1.0457 H       1  UNL1        0.0422
     73 H         -13.1437    2.7385   -2.5401 H       1  UNL1        0.0422
     74 H         -10.9420    4.0897   -1.1350 H       1  UNL1        0.1182
     75 H         -12.5166    4.5017   -1.0114 H       1  UNL1        0.1182
     76 H          -5.8725   -5.9556   -3.1042 H       1  UNL1        0.2100
     77 H          -9.7916   -2.4644   -6.0940 H       1  UNL1        0.1187
     78 H         -11.3574   -2.7019   -5.7326 H       1  UNL1        0.1187
     79 H         -10.7962   -6.1346   -8.2775 H       1  UNL1        0.2100
     80 H         -13.6730   -3.2655   -6.2586 H       1  UNL1        0.2100
     81 H         -11.4103   -7.5359   -6.0221 H       1  UNL1        0.0448
     82 H         -13.1097   -7.7396   -5.5905 H       1  UNL1        0.0448
     83 H         -10.7597   -7.9476   -3.8559 H       1  UNL1        0.1183
     84 H         -11.6717   -9.1769   -4.4127 H       1  UNL1        0.1183
@<TRIPOS>BOND
     1     1     2    1
     2     1     3    1
     3     1    44    1
     4     1    47    1
     5     3     4    1
     6     4     5    1
     7     4     6    1
     8     4    38    1
     9     6     7    1
    10     7     8    1
    11     7    25    1
    12     9     7    1
    13     9    37    1
    14     9    10    1
    15    11     9    1
    16    11    28    1
    17    11    12    1
    18    13    11    1
    19    13    14    1
    20    13    15    1
    21    13    24    1
    22    15    16   am
    23    15    49    1
    24    16    17    2
    25    18    20    1
    26    18    21    1
    27    18    19    1
    28    18    16    1
    29    20    50    1
    30    21    22    1
    31    21    51    1
    32    21    52    1
    33    22    23    1
    34    22    53    1
    35    22    54    1
    36    23    55    1
    37    23    56    1
    38    24    25    1
    39    24    57    1
    40    24    58    1
    41    25    26    1
    42    25    27    1
    43    27    59    1
    44    27    60    1
    45    28    29    1
    46    29    30    1
    47    29    61    1
    48    29    62    1
    49    30    31    1
    50    30    63    1
    51    30    64    1
    52    31    32    1
    53    31    65    1
    54    32    33    1
    55    32    66    1
    56    32    67    1
    57    33    34    1
    58    33    68    1
    59    33    69    1
    60    34    35    1
    61    34    70    1
    62    34    71    1
    63    35    36    1
    64    35    72    1
    65    35    73    1
    66    36    74    1
    67    36    75    1
    68    37    76    1
    69    38    39    1
    70    38    40    1
    71    38    41    1
    72    40    77    1
    73    40    78    1
    74    41    44    1
    75    41    43    1
    76    41    42    1
    77    43    79    1
    78    44    45    1
    79    44    46    1
    80    46    80    1
    81    47    48    1
    82    47    81    1
    83    47    82    1
    84    48    83    1
    85    48    84    1
