ligands/ligand.pdb
 OpenBabel03221816533D

 84 85  0  0  1  0  0  0  0  0999 V2000
  -12.2746   -5.8712   -4.8634 C   0  0  1  0  0  0  0  0  0  0  0  0
  -12.9618   -5.7904   -4.0125 H   0  0  0  0  0  0  0  0  0  0  0  0
  -11.0437   -5.3043   -4.3876 O   0  0  0  0  0  0  0  0  0  0  0  0
  -10.0158   -5.1660   -5.3530 C   0  0  2  0  0  0  0  0  0  0  0  0
   -9.6952   -6.1492   -5.7140 H   0  0  0  0  0  0  0  0  0  0  0  0
   -8.8954   -4.5440   -4.7294 O   0  0  0  0  0  0  0  0  0  0  0  0
   -8.0486   -5.3117   -3.8347 C   0  0  1  0  0  0  0  0  0  0  0  0
   -7.5791   -6.0688   -4.4787 H   0  0  0  0  0  0  0  0  0  0  0  0
   -6.9513   -4.3276   -3.3384 C   0  0  1  0  0  0  0  0  0  0  0  0
   -6.6141   -3.7293   -4.1928 H   0  0  0  0  0  0  0  0  0  0  0  0
   -7.5646   -3.3743   -2.2639 C   0  0  2  0  0  0  0  0  0  0  0  0
   -6.8739   -2.5405   -2.0935 H   0  0  0  0  0  0  0  0  0  0  0  0
   -7.8138   -4.1460   -0.9681 C   0  0  2  0  0  0  0  0  0  0  0  0
   -8.3043   -3.4611   -0.2838 H   0  0  0  0  0  0  0  0  0  0  0  0
   -6.6278   -4.5709   -0.2403 N   0  0  0  0  0  0  0  0  0  0  0  0
   -6.5470   -4.4013    1.1293 C   0  0  0  0  0  0  0  0  0  0  0  0
   -7.4086   -3.8081    1.7752 O   0  0  0  0  0  0  0  0  0  0  0  0
   -5.2784   -4.9772    1.7902 C   0  0  2  0  0  0  0  0  0  0  0  0
   -4.5419   -4.1635    1.7884 H   0  0  0  0  0  0  0  0  0  0  0  0
   -4.7121   -6.0712    1.0748 O   0  0  0  0  0  0  0  0  0  0  0  0
   -5.5682   -5.3777    3.2477 C   0  0  0  0  0  0  0  0  0  0  0  0
   -6.5941   -6.5133    3.3419 C   0  0  0  0  0  0  0  0  0  0  0  0
   -6.8958   -6.8343    4.7308 N   0  0  0  0  0  0  0  0  0  0  0  0
   -8.8210   -5.2854   -1.2451 C   0  0  0  0  0  0  0  0  0  0  0  0
   -8.6331   -6.0720   -2.5734 C   0  0  2  0  0  0  0  0  0  0  0  0
   -9.6008   -6.5030   -2.8307 H   0  0  0  0  0  0  0  0  0  0  0  0
   -7.7420   -7.2191   -2.2322 N   0  0  0  0  0  0  0  0  0  0  0  0
   -8.7963   -2.8725   -2.8136 O   0  0  0  0  0  0  0  0  0  0  0  0
   -9.7389   -2.2331   -1.9714 C   0  0  0  0  0  0  0  0  0  0  0  0
   -9.3106   -0.7918   -1.7659 C   0  0  0  0  0  0  0  0  0  0  0  0
   -9.0899   -0.1251   -3.0606 N   0  0  0  0  0  0  0  0  0  0  0  0
  -10.3048   -0.0481   -3.8859 C   0  0  0  0  0  0  0  0  0  0  0  0
  -11.4782    0.6598   -3.2061 C   0  0  0  0  0  0  0  0  0  0  0  0
  -11.0980    2.0760   -2.7770 C   0  0  0  0  0  0  0  0  0  0  0  0
  -12.2081    2.7315   -1.9708 C   0  0  0  0  0  0  0  0  0  0  0  0
  -11.8277    4.0986   -1.6418 N   0  0  0  0  0  0  0  0  0  0  0  0
   -5.7963   -5.0204   -2.8277 O   0  0  0  0  0  0  0  0  0  0  0  0
  -10.4931   -4.3243   -6.6226 C   0  0  2  0  0  0  0  0  0  0  0  0
   -9.7208   -4.4397   -7.3938 H   0  0  0  0  0  0  0  0  0  0  0  0
  -10.6565   -2.8565   -6.4666 N   0  0  0  0  0  0  0  0  0  0  0  0
  -11.8351   -4.8867   -7.1587 C   0  0  1  0  0  0  0  0  0  0  0  0
  -12.2433   -4.2043   -7.9172 H   0  0  0  0  0  0  0  0  0  0  0  0
  -11.6560   -6.1423   -7.8223 O   0  0  0  0  0  0  0  0  0  0  0  0
  -12.8635   -5.0400   -6.0232 C   0  0  2  0  0  0  0  0  0  0  0  0
  -13.7709   -5.5321   -6.3918 H   0  0  0  0  0  0  0  0  0  0  0  0
  -13.2636   -3.7527   -5.5212 O   0  0  0  0  0  0  0  0  0  0  0  0
  -12.1434   -7.3712   -5.2306 C   0  0  0  0  0  0  0  0  0  0  0  0
  -11.7139   -8.2059   -4.1057 N   0  0  0  0  0  0  0  0  0  0  0  0
   -5.8410   -4.9976   -0.7310 H   0  0  0  0  0  0  0  0  0  0  0  0
   -3.8604   -6.2698    1.5096 H   0  0  0  0  0  0  0  0  0  0  0  0
   -5.9292   -4.5054    3.8096 H   0  0  0  0  0  0  0  0  0  0  0  0
   -4.6345   -5.7009    3.7253 H   0  0  0  0  0  0  0  0  0  0  0  0
   -6.2085   -7.4118    2.8484 H   0  0  0  0  0  0  0  0  0  0  0  0
   -7.5275   -6.2367    2.8425 H   0  0  0  0  0  0  0  0  0  0  0  0
   -6.0664   -7.1729    5.2060 H   0  0  0  0  0  0  0  0  0  0  0  0
   -7.5940   -7.5782    4.7648 H   0  0  0  0  0  0  0  0  0  0  0  0
   -9.8321   -4.8686   -1.2648 H   0  0  0  0  0  0  0  0  0  0  0  0
   -8.8267   -5.9624   -0.3799 H   0  0  0  0  0  0  0  0  0  0  0  0
   -8.2875   -7.8632   -1.6497 H   0  0  0  0  0  0  0  0  0  0  0  0
   -7.0223   -6.8904   -1.5784 H   0  0  0  0  0  0  0  0  0  0  0  0
   -9.9138   -2.7317   -1.0183 H   0  0  0  0  0  0  0  0  0  0  0  0
  -10.7087   -2.2963   -2.4774 H   0  0  0  0  0  0  0  0  0  0  0  0
   -8.3596   -0.7781   -1.2218 H   0  0  0  0  0  0  0  0  0  0  0  0
  -10.0298   -0.2614   -1.1359 H   0  0  0  0  0  0  0  0  0  0  0  0
   -8.4265   -0.7162   -3.5721 H   0  0  0  0  0  0  0  0  0  0  0  0
  -10.6216   -1.0459   -4.2078 H   0  0  0  0  0  0  0  0  0  0  0  0
  -10.0468    0.4871   -4.8059 H   0  0  0  0  0  0  0  0  0  0  0  0
  -11.8333    0.0791   -2.3456 H   0  0  0  0  0  0  0  0  0  0  0  0
  -12.3208    0.6987   -3.9067 H   0  0  0  0  0  0  0  0  0  0  0  0
  -10.8711    2.6679   -3.6719 H   0  0  0  0  0  0  0  0  0  0  0  0
  -10.1861    2.0583   -2.1674 H   0  0  0  0  0  0  0  0  0  0  0  0
  -12.3827    2.1678   -1.0457 H   0  0  0  0  0  0  0  0  0  0  0  0
  -13.1437    2.7385   -2.5401 H   0  0  0  0  0  0  0  0  0  0  0  0
  -10.9420    4.0897   -1.1350 H   0  0  0  0  0  0  0  0  0  0  0  0
  -12.5166    4.5017   -1.0114 H   0  0  0  0  0  0  0  0  0  0  0  0
   -5.8725   -5.9556   -3.1042 H   0  0  0  0  0  0  0  0  0  0  0  0
   -9.7916   -2.4644   -6.0940 H   0  0  0  0  0  0  0  0  0  0  0  0
  -11.3574   -2.7019   -5.7326 H   0  0  0  0  0  0  0  0  0  0  0  0
  -10.7962   -6.1346   -8.2775 H   0  0  0  0  0  0  0  0  0  0  0  0
  -13.6730   -3.2655   -6.2586 H   0  0  0  0  0  0  0  0  0  0  0  0
  -11.4103   -7.5359   -6.0221 H   0  0  0  0  0  0  0  0  0  0  0  0
  -13.1097   -7.7396   -5.5905 H   0  0  0  0  0  0  0  0  0  0  0  0
  -10.7597   -7.9476   -3.8559 H   0  0  0  0  0  0  0  0  0  0  0  0
  -11.6717   -9.1769   -4.4127 H   0  0  0  0  0  0  0  0  0  0  0  0
  1  2  1  0  0  0  0
  1  3  1  0  0  0  0
  1 44  1  6  0  0  0
  1 47  1  0  0  0  0
  3  4  1  0  0  0  0
  4  5  1  0  0  0  0
  4  6  1  0  0  0  0
  4 38  1  6  0  0  0
  6  7  1  0  0  0  0
  7  8  1  0  0  0  0
  7 25  1  1  0  0  0
  9  7  1  6  0  0  0
  9 37  1  0  0  0  0
  9 10  1  0  0  0  0
 11  9  1  6  0  0  0
 11 28  1  0  0  0  0
 11 12  1  0  0  0  0
 13 11  1  6  0  0  0
 13 14  1  0  0  0  0
 13 15  1  0  0  0  0
 13 24  1  0  0  0  0
 15 16  1  0  0  0  0
 15 49  1  0  0  0  0
 16 17  2  0  0  0  0
 18 20  1  0  0  0  0
 18 21  1  0  0  0  0
 18 19  1  1  0  0  0
 18 16  1  0  0  0  0
 20 50  1  0  0  0  0
 21 22  1  0  0  0  0
 21 51  1  0  0  0  0
 21 52  1  0  0  0  0
 22 23  1  0  0  0  0
 22 53  1  0  0  0  0
 22 54  1  0  0  0  0
 23 55  1  0  0  0  0
 23 56  1  0  0  0  0
 24 25  1  0  0  0  0
 24 57  1  0  0  0  0
 24 58  1  0  0  0  0
 25 26  1  6  0  0  0
 25 27  1  0  0  0  0
 27 59  1  0  0  0  0
 27 60  1  0  0  0  0
 28 29  1  0  0  0  0
 29 30  1  0  0  0  0
 29 61  1  0  0  0  0
 29 62  1  0  0  0  0
 30 31  1  0  0  0  0
 30 63  1  0  0  0  0
 30 64  1  0  0  0  0
 31 32  1  0  0  0  0
 31 65  1  0  0  0  0
 32 33  1  0  0  0  0
 32 66  1  0  0  0  0
 32 67  1  0  0  0  0
 33 34  1  0  0  0  0
 33 68  1  0  0  0  0
 33 69  1  0  0  0  0
 34 35  1  0  0  0  0
 34 70  1  0  0  0  0
 34 71  1  0  0  0  0
 35 36  1  0  0  0  0
 35 72  1  0  0  0  0
 35 73  1  0  0  0  0
 36 74  1  0  0  0  0
 36 75  1  0  0  0  0
 37 76  1  0  0  0  0
 38 39  1  0  0  0  0
 38 40  1  0  0  0  0
 38 41  1  6  0  0  0
 40 77  1  0  0  0  0
 40 78  1  0  0  0  0
 41 44  1  1  0  0  0
 41 43  1  0  0  0  0
 41 42  1  0  0  0  0
 43 79  1  0  0  0  0
 44 45  1  6  0  0  0
 44 46  1  0  0  0  0
 46 80  1  0  0  0  0
 47 48  1  0  0  0  0
 47 81  1  0  0  0  0
 47 82  1  0  0  0  0
 48 83  1  0  0  0  0
 48 84  1  0  0  0  0
M  END
$$$$
