REMARK  16 active torsions:
REMARK  status: ('A' for Active; 'I' for Inactive)
REMARK    1  A    between atoms: O_2  and  C_1 
REMARK    2  A    between atoms: C_3  and  O_2 
REMARK    3  A    between atoms: N_21  and  C_4 
REMARK    4  A    between atoms: N_7  and  C_6 
REMARK    5  A    between atoms: O_20  and  C_8 
REMARK    6  A    between atoms: O_10  and  C_9 
REMARK    7  A    between atoms: C_11  and  O_10 
REMARK    8  A    between atoms: O_13  and  C_12 
REMARK    9  A    between atoms: O_15  and  C_14 
REMARK   10  A    between atoms: C_18  and  C_16 
REMARK   11  A    between atoms: N_19  and  C_18 
REMARK   12  A    between atoms: N_23  and  C_22 
REMARK   13  A    between atoms: O_25  and  C_24 
REMARK   14  A    between atoms: O_27  and  C_26 
REMARK   15  A    between atoms: C_30  and  C_28 
REMARK   16  A    between atoms: O_31  and  C_30 
ROOT
ATOM      1  C   UNL d   1       2.834   0.506   1.249  0.00  0.00     0.189 C 
ATOM      2  C   UNL d   1       1.388   0.898   1.656  0.00  0.00     0.251 C 
ATOM      3  C   UNL d   1       1.027   2.380   1.540  0.00  0.00     0.076 C 
ATOM      4  C   UNL d   1       2.132   3.335   1.988  0.00  0.00     0.251 C 
ATOM      5  C   UNL d   1       3.400   3.065   1.191  0.00  0.00     0.182 C 
ATOM      6  C   UNL d   1       3.934   1.628   1.261  0.00  0.00     0.186 C 
ENDROOT
BRANCH   1   7
ATOM      7  O   UNL d   1       2.796   0.011  -0.091  0.00  0.00    -0.349 OA
BRANCH   7   8
ATOM      8  C   UNL d   1       2.582  -1.377  -0.364  0.00  0.00     0.296 C 
ATOM      9  C   UNL d   1       2.809  -2.514   0.661  0.00  0.00     0.303 C 
ATOM     10  C   UNL d   1       4.290  -2.636   1.036  0.00  0.00     0.187 C 
ATOM     11  C   UNL d   1       5.119  -2.807  -0.246  0.00  0.00     0.180 C 
ATOM     12  C   UNL d   1       4.784  -1.704  -1.258  0.00  0.00     0.179 C 
ATOM     13  O   UNL d   1       3.369  -1.731  -1.532  0.00  0.00    -0.349 OA
BRANCH   9  14
ATOM     14  N   UNL d   1       1.923  -2.452   1.812  0.00  0.00     0.090 N 
ATOM     15  H   UNL d   1       2.276  -3.065   2.542  0.00  0.00     0.313 HD
ATOM     16  H   UNL d   1       1.013  -2.834   1.544  0.00  0.00     0.313 HD
ENDBRANCH   9  14
BRANCH  10  17
ATOM     17  O   UNL d   1       4.505  -3.775   1.866  0.00  0.00    -0.391 OA
ATOM     18  H   UNL d   1       4.427  -3.483   2.787  0.00  0.00     0.210 HD
ENDBRANCH  10  17
BRANCH  11  19
ATOM     19  O   UNL d   1       6.510  -2.771   0.082  0.00  0.00    -0.390 OA
ATOM     20  H   UNL d   1       6.651  -2.004   0.662  0.00  0.00     0.210 HD
ENDBRANCH  11  19
BRANCH  12  21
ATOM     21  C   UNL d   1       5.521  -1.930  -2.571  0.00  0.00     0.198 C 
BRANCH  21  22
ATOM     22  O   UNL d   1       5.186  -0.894  -3.479  0.00  0.00    -0.398 OA
ATOM     23  H   UNL d   1       5.707  -0.111  -3.233  0.00  0.00     0.209 HD
ENDBRANCH  21  22
ENDBRANCH  12  21
ENDBRANCH   7   8
ENDBRANCH   1   7
BRANCH   2  24
ATOM     24  N   UNL d   1       1.089   0.460   3.023  0.00  0.00     0.085 N 
ATOM     25  H   UNL d   1       1.950   0.330   3.546  0.00  0.00     0.313 HD
ATOM     26  H   UNL d   1       0.634  -0.451   2.985  0.00  0.00     0.313 HD
ENDBRANCH   2  24
BRANCH   6  27
ATOM     27  O   UNL d   1       4.759   1.431   2.428  0.00  0.00    -0.348 OA
BRANCH  27  28
ATOM     28  C   UNL d   1       6.013   2.129   2.421  0.00  0.00     0.292 C 
ATOM     29  C   UNL d   1       7.210   1.191   2.458  0.00  0.00     0.204 C 
ATOM     30  C   UNL d   1       8.375   2.162   2.227  0.00  0.00     0.182 C 
ATOM     31  C   UNL d   1       7.750   3.260   1.356  0.00  0.00     0.183 C 
ATOM     32  O   UNL d   1       6.338   2.942   1.273  0.00  0.00    -0.349 OA
BRANCH  29  33
ATOM     33  O   UNL d   1       7.346   0.457   3.658  0.00  0.00    -0.388 OA
ATOM     34  H   UNL d   1       6.990   0.993   4.381  0.00  0.00     0.210 HD
ENDBRANCH  29  33
BRANCH  30  35
ATOM     35  O   UNL d   1       8.812   2.749   3.459  0.00  0.00    -0.390 OA
ATOM     36  H   UNL d   1       8.040   2.869   4.039  0.00  0.00     0.210 HD
ENDBRANCH  30  35
BRANCH  31  37
ATOM     37  C   UNL d   1       8.362   3.393  -0.041  0.00  0.00     0.301 C 
BRANCH  37  38
ATOM     38  N   UNL d   1       8.273   2.203  -0.875  0.00  0.00     0.080 N 
ATOM     39  H   UNL d   1       7.465   1.637  -0.616  0.00  0.00     0.312 HD
ATOM     40  H   UNL d   1       9.095   1.622  -0.741  0.00  0.00     0.312 HD
ENDBRANCH  37  38
ENDBRANCH  31  37
ENDBRANCH  27  28
ENDBRANCH   6  27
BRANCH   5  41
ATOM     41  O   UNL d   1       3.121   3.370  -0.179  0.00  0.00    -0.391 OA
ATOM     42  H   UNL d   1       3.728   4.077  -0.450  0.00  0.00     0.210 HD
ENDBRANCH   5  41
BRANCH   4  43
ATOM     43  N   UNL d   1       2.370   3.279   3.433  0.00  0.00     0.085 N 
ATOM     44  H   UNL d   1       1.472   3.247   3.919  0.00  0.00     0.313 HD
ATOM     45  H   UNL d   1       2.853   2.409   3.666  0.00  0.00     0.313 HD
ENDBRANCH   4  43
TORSDOF 16
