@<TRIPOS>MOLECULE
2O3X_N30_B_1
 65 67 0 0 0
SMALL
GASTEIGER

@<TRIPOS>ATOM
      1 C           2.5819   -1.3773   -0.3644 C.3     1  UNL1        0.1776
      2 H           1.5393   -1.4464   -0.6914 H       1  UNL1        0.0927
      3 O           2.7960    0.0105   -0.0914 O.3     1  UNL1       -0.3422
      4 C           2.8340    0.5061    1.2491 C.3     1  UNL1        0.1055
      5 H           3.1862   -0.2786    1.9243 H       1  UNL1        0.0639
      6 C           1.3880    0.8984    1.6559 C.3     1  UNL1        0.0355
      7 H           0.6911    0.3551    1.0055 H       1  UNL1        0.0485
      8 C           1.0268    2.3802    1.5401 C.3     1  UNL1       -0.0175
      9 C           2.1322    3.3352    1.9885 C.3     1  UNL1        0.0351
     10 H           1.8135    4.3661    1.7685 H       1  UNL1        0.0485
     11 N           2.3698    3.2787    3.4334 N.3     1  UNL1       -0.3250
     12 C           3.4001    3.0646    1.1906 C.3     1  UNL1        0.0990
     13 H           4.1568    3.7774    1.5249 H       1  UNL1        0.0636
     14 C           3.9337    1.6279    1.2606 C.3     1  UNL1        0.1166
     15 H           4.5954    1.4208    0.4076 H       1  UNL1        0.0650
     16 O           4.7594    1.4312    2.4275 O.3     1  UNL1       -0.3402
     17 C           6.0131    2.1291    2.4205 C.3     1  UNL1        0.1884
     18 H           5.9844    2.7951    3.2901 H       1  UNL1        0.0938
     19 C           7.2105    1.1908    2.4581 C.3     1  UNL1        0.1341
     20 H           7.1574    0.4713    1.6329 H       1  UNL1        0.0671
     21 O           7.3457    0.4567    3.6583 O.3     1  UNL1       -0.3841
     22 C           8.3746    2.1620    2.2266 C.3     1  UNL1        0.1131
     23 H           9.2387    1.6558    1.7910 H       1  UNL1        0.0647
     24 O           8.8115    2.7487    3.4592 O.3     1  UNL1       -0.3864
     25 C           7.7496    3.2596    1.3564 C.3     1  UNL1        0.1024
     26 H           7.8305    4.2411    1.8529 H       1  UNL1        0.0636
     27 O           6.3385    2.9425    1.2726 O.3     1  UNL1       -0.3415
     28 C           8.3618    3.3932   -0.0407 C.3     1  UNL1        0.0222
     29 N           8.2731    2.2025   -0.8748 N.3     1  UNL1       -0.3276
     30 O           3.1214    3.3705   -0.1794 O.3     1  UNL1       -0.3876
     31 N           1.0887    0.4604    3.0235 N.3     1  UNL1       -0.3250
     32 C           2.8090   -2.5135    0.6610 C.3     1  UNL1        0.0853
     33 H           2.5432   -3.4501    0.1384 H       1  UNL1        0.0535
     34 N           1.9225   -2.4520    1.8120 N.3     1  UNL1       -0.3211
     35 C           4.2904   -2.6356    1.0363 C.3     1  UNL1        0.1033
     36 H           4.6466   -1.7577    1.5848 H       1  UNL1        0.0637
     37 O           4.5052   -3.7748    1.8656 O.3     1  UNL1       -0.3874
     38 C           5.1194   -2.8072   -0.2457 C.3     1  UNL1        0.1109
     39 H           4.9249   -3.8000   -0.6711 H       1  UNL1        0.0646
     40 O           6.5103   -2.7711    0.0819 O.3     1  UNL1       -0.3865
     41 C           4.7836   -1.7039   -1.2585 C.3     1  UNL1        0.1129
     42 H           5.0513   -0.7122   -0.8732 H       1  UNL1        0.0647
     43 O           3.3695   -1.7308   -1.5323 O.3     1  UNL1       -0.3415
     44 C           5.5212   -1.9303   -2.5710 C.3     1  UNL1        0.0730
     45 O           5.1865   -0.8944   -3.4789 O.3     1  UNL1       -0.3924
     46 H           0.1006    2.6073    2.0884 H       1  UNL1        0.0297
     47 H           0.8052    2.6094    0.4908 H       1  UNL1        0.0297
     48 H           1.4725    3.2467    3.9188 H       1  UNL1        0.1185
     49 H           2.8527    2.4094    3.6664 H       1  UNL1        0.1185
     50 H           6.9905    0.9932    4.3808 H       1  UNL1        0.2101
     51 H           8.0398    2.8688    4.0392 H       1  UNL1        0.2100
     52 H           7.8719    4.2231   -0.5617 H       1  UNL1        0.0448
     53 H           9.4184    3.6787    0.0622 H       1  UNL1        0.0448
     54 H           7.4645    1.6375   -0.6158 H       1  UNL1        0.1183
     55 H           9.0955    1.6216   -0.7410 H       1  UNL1        0.1183
     56 H           3.7277    4.0767   -0.4504 H       1  UNL1        0.2100
     57 H           1.9497    0.3299    3.5461 H       1  UNL1        0.1185
     58 H           0.6337   -0.4507    2.9853 H       1  UNL1        0.1185
     59 H           2.2762   -3.0652    2.5421 H       1  UNL1        0.1187
     60 H           1.0127   -2.8343    1.5438 H       1  UNL1        0.1187
     61 H           4.4267   -3.4828    2.7866 H       1  UNL1        0.2100
     62 H           6.6511   -2.0036    0.6618 H       1  UNL1        0.2100
     63 H           5.2254   -2.8826   -3.0151 H       1  UNL1        0.0584
     64 H           6.6055   -1.9297   -2.4268 H       1  UNL1        0.0584
     65 H           5.7072   -0.1113   -3.2326 H       1  UNL1        0.2095
@<TRIPOS>BOND
     1     1     2    1
     2     3     1    1
     3     4     3    1
     4     4     5    1
     5     6     4    1
     6     6     7    1
     7     8     6    1
     8     9     8    1
     9     9    10    1
    10    11     9    1
    11    12     9    1
    12    12    13    1
    13    14    12    1
    14    14    15    1
    15    14     4    1
    16    16    14    1
    17    17    16    1
    18    17    18    1
    19    19    17    1
    20    19    20    1
    21    21    19    1
    22    22    19    1
    23    22    23    1
    24    24    22    1
    25    25    22    1
    26    25    26    1
    27    27    25    1
    28    27    17    1
    29    28    25    1
    30    29    28    1
    31    30    12    1
    32    31     6    1
    33    32     1    1
    34    32    33    1
    35    34    32    1
    36    35    32    1
    37    35    36    1
    38    37    35    1
    39    38    35    1
    40    38    39    1
    41    40    38    1
    42    41    38    1
    43    41    42    1
    44    43    41    1
    45    43     1    1
    46    44    41    1
    47    45    44    1
    48     8    46    1
    49     8    47    1
    50    11    48    1
    51    11    49    1
    52    21    50    1
    53    24    51    1
    54    28    52    1
    55    28    53    1
    56    29    54    1
    57    29    55    1
    58    30    56    1
    59    31    57    1
    60    31    58    1
    61    34    59    1
    62    34    60    1
    63    37    61    1
    64    40    62    1
    65    44    63    1
    66    44    64    1
    67    45    65    1
