REMARK  10 active torsions:
REMARK  status: ('A' for Active; 'I' for Inactive)
REMARK    1  A    between atoms: O_12  and  C_1 
REMARK    2  A    between atoms: N_11  and  C_2 
REMARK    3  A    between atoms: O_10  and  C_3 
REMARK    4  A    between atoms: C_6  and  C_5 
REMARK    5  A    between atoms: N_7  and  C_6 
REMARK    6  A    between atoms: C_13  and  O_12 
REMARK    7  A    between atoms: O_22  and  C_14 
REMARK    8  A    between atoms: O_21  and  C_15 
REMARK    9  A    between atoms: N_20  and  C_16 
REMARK   10  A    between atoms: N_19  and  C_18 
ROOT
ATOM      1  O   UNL d   1      -0.906   0.296   3.002  0.00  0.00    -0.349 OA
ENDROOT
BRANCH   1   2
ATOM      2  C   UNL d   1      -0.185  -0.766   2.375  0.00  0.00     0.296 C 
ATOM      3  C   UNL d   1       0.567  -0.470   1.048  0.00  0.00     0.303 C 
ATOM      4  C   UNL d   1      -0.399   0.025  -0.032  0.00  0.00     0.192 C 
ATOM      5  C   UNL d   1      -1.479  -1.044  -0.220  0.00  0.00     0.231 C 
ATOM      6  C   UNL d   1      -2.136  -1.418   1.117  0.00  0.00     0.189 C 
ATOM      7  F   UNL d   1      -0.888  -2.161  -0.734  0.00  0.00    -0.244 F 
ATOM      8  O   UNL d   1      -1.109  -1.839   2.044  0.00  0.00    -0.349 OA
BRANCH   3   9
ATOM      9  N   UNL d   1       1.730   0.397   1.185  0.00  0.00     0.090 N 
ATOM     10  H   UNL d   1       2.251   0.389   0.308  0.00  0.00     0.313 HD
ATOM     11  H   UNL d   1       2.366   0.001   1.879  0.00  0.00     0.313 HD
ENDBRANCH   3   9
BRANCH   4  12
ATOM     12  O   UNL d   1       0.272   0.231  -1.274  0.00  0.00    -0.390 OA
ATOM     13  H   UNL d   1       0.645  -0.623  -1.556  0.00  0.00     0.210 HD
ENDBRANCH   4  12
BRANCH   6  14
ATOM     14  C   UNL d   1      -3.101  -2.595   0.924  0.00  0.00     0.301 C 
BRANCH  14  15
ATOM     15  N   UNL d   1      -3.712  -3.001   2.188  0.00  0.00     0.080 N 
ATOM     16  H   UNL d   1      -4.005  -2.172   2.705  0.00  0.00     0.312 HD
ATOM     17  H   UNL d   1      -3.013  -3.465   2.767  0.00  0.00     0.312 HD
ENDBRANCH  14  15
ENDBRANCH   6  14
ENDBRANCH   1   2
BRANCH   1  18
ATOM     18  C   UNL d   1      -0.205   1.395   3.587  0.00  0.00     0.189 C 
ATOM     19  C   UNL d   1      -1.184   2.581   3.458  0.00  0.00     0.180 C 
ATOM     20  C   UNL d   1      -0.586   3.863   4.020  0.00  0.00     0.182 C 
ATOM     21  C   UNL d   1      -0.118   3.706   5.472  0.00  0.00     0.251 C 
ATOM     22  C   UNL d   1       0.771   2.467   5.649  0.00  0.00     0.076 C 
ATOM     23  C   UNL d   1       0.122   1.184   5.085  0.00  0.00     0.251 C 
BRANCH  19  24
ATOM     24  O   UNL d   1      -1.498   2.788   2.075  0.00  0.00    -0.390 OA
ATOM     25  H   UNL d   1      -2.217   2.168   1.863  0.00  0.00     0.210 HD
ENDBRANCH  19  24
BRANCH  20  26
ATOM     26  O   UNL d   1      -1.608   4.866   3.984  0.00  0.00    -0.391 OA
ATOM     27  H   UNL d   1      -1.387   5.499   3.281  0.00  0.00     0.210 HD
ENDBRANCH  20  26
BRANCH  21  28
ATOM     28  N   UNL d   1       0.644   4.900   5.864  0.00  0.00     0.085 N 
ATOM     29  H   UNL d   1       0.648   4.990   6.878  0.00  0.00     0.313 HD
ATOM     30  H   UNL d   1       0.174   5.732   5.510  0.00  0.00     0.313 HD
ENDBRANCH  21  28
BRANCH  23  31
ATOM     31  N   UNL d   1       1.041   0.065   5.277  0.00  0.00     0.085 N 
ATOM     32  H   UNL d   1       1.463   0.121   6.204  0.00  0.00     0.313 HD
ATOM     33  H   UNL d   1       0.512  -0.807   5.271  0.00  0.00     0.313 HD
ENDBRANCH  23  31
ENDBRANCH   1  18
TORSDOF 10
