@<TRIPOS>MOLECULE
5BWS_V71_B_100
 47 48 0 0 0
SMALL
GASTEIGER

@<TRIPOS>ATOM
      1 C          -0.1846   -0.7663    2.3753 C.3     1  UNL1        0.1776
      2 H           0.5240   -1.1918    3.0893 H       1  UNL1        0.0927
      3 C           0.5669   -0.4700    1.0477 C.3     1  UNL1        0.0856
      4 H           0.9635   -1.4382    0.6952 H       1  UNL1        0.0535
      5 C          -0.3994    0.0247   -0.0324 C.3     1  UNL1        0.1084
      6 H          -0.8590    0.9751    0.2544 H       1  UNL1        0.0640
      7 C          -1.4794   -1.0435   -0.2203 C.3     1  UNL1        0.1555
      8 H          -2.2168   -0.7123   -0.9608 H       1  UNL1        0.0705
      9 C          -2.1356   -1.4178    1.1170 C.3     1  UNL1        0.1073
     10 H          -2.6776   -0.5573    1.5234 H       1  UNL1        0.0639
     11 C          -3.1008   -2.5948    0.9245 C.3     1  UNL1        0.0225
     12 N          -3.7120   -3.0008    2.1877 N.3     1  UNL1       -0.3276
     13 O          -1.1095   -1.8394    2.0438 O.3     1  UNL1       -0.3422
     14 F          -0.8879   -2.1612   -0.7343 F       1  UNL1       -0.2400
     15 O           0.2721    0.2312   -1.2738 O.3     1  UNL1       -0.3871
     16 N           1.7298    0.3974    1.1853 N.3     1  UNL1       -0.3211
     17 O          -0.9064    0.2963    3.0015 O.3     1  UNL1       -0.3422
     18 C          -0.2046    1.3955    3.5870 C.3     1  UNL1        0.1051
     19 H           0.6947    1.6140    3.0193 H       1  UNL1        0.0639
     20 C          -1.1836    2.5813    3.4585 C.3     1  UNL1        0.1101
     21 H          -2.1308    2.3454    3.9759 H       1  UNL1        0.0646
     22 C          -0.5862    3.8631    4.0203 C.3     1  UNL1        0.0986
     23 H           0.2311    4.2101    3.3757 H       1  UNL1        0.0635
     24 C          -0.1180    3.7056    5.4718 C.3     1  UNL1        0.0351
     25 H          -0.9885    3.6243    6.1345 H       1  UNL1        0.0485
     26 C           0.7713    2.4671    5.6494 C.3     1  UNL1       -0.0175
     27 C           0.1218    1.1844    5.0849 C.3     1  UNL1        0.0355
     28 H          -0.8062    0.9713    5.6304 H       1  UNL1        0.0485
     29 N           1.0410    0.0648    5.2765 N.3     1  UNL1       -0.3250
     30 N           0.6440    4.9004    5.8636 N.3     1  UNL1       -0.3250
     31 O          -1.6082    4.8657    3.9844 O.3     1  UNL1       -0.3876
     32 O          -1.4977    2.7877    2.0755 O.3     1  UNL1       -0.3866
     33 H          -2.5703   -3.4571    0.4993 H       1  UNL1        0.0448
     34 H          -3.8889   -2.3288    0.2200 H       1  UNL1        0.0448
     35 H          -4.0048   -2.1719    2.7055 H       1  UNL1        0.1183
     36 H          -3.0128   -3.4649    2.7673 H       1  UNL1        0.1183
     37 H           0.6454   -0.6228   -1.5557 H       1  UNL1        0.2100
     38 H           2.2510    0.3887    0.3081 H       1  UNL1        0.1187
     39 H           2.3662    0.0006    1.8790 H       1  UNL1        0.1187
     40 H           1.0034    2.3345    6.7132 H       1  UNL1        0.0297
     41 H           1.7427    2.6228    5.1611 H       1  UNL1        0.0297
     42 H           1.4633    0.1212    6.2036 H       1  UNL1        0.1185
     43 H           0.5118   -0.8073    5.2714 H       1  UNL1        0.1185
     44 H           0.6476    4.9901    6.8779 H       1  UNL1        0.1185
     45 H           0.1737    5.7317    5.5103 H       1  UNL1        0.1185
     46 H          -1.3870    5.4987    3.2810 H       1  UNL1        0.2100
     47 H          -2.2169    2.1677    1.8627 H       1  UNL1        0.2100
@<TRIPOS>BOND
     1     1     2    1
     2     3     1    1
     3     3     4    1
     4     5     3    1
     5     5     6    1
     6     7     5    1
     7     7     8    1
     8     9     7    1
     9     9    10    1
    10    11     9    1
    11    12    11    1
    12    13     9    1
    13    13     1    1
    14    14     7    1
    15    15     5    1
    16    16     3    1
    17    17     1    1
    18    18    17    1
    19    18    19    1
    20    20    18    1
    21    20    21    1
    22    22    20    1
    23    22    23    1
    24    24    22    1
    25    24    25    1
    26    26    24    1
    27    27    26    1
    28    27    28    1
    29    27    18    1
    30    29    27    1
    31    30    24    1
    32    31    22    1
    33    32    20    1
    34    11    33    1
    35    11    34    1
    36    12    35    1
    37    12    36    1
    38    15    37    1
    39    16    38    1
    40    16    39    1
    41    26    40    1
    42    26    41    1
    43    29    42    1
    44    29    43    1
    45    30    44    1
    46    30    45    1
    47    31    46    1
    48    32    47    1
