5BWS_V71_B_100
  1228              3D

 47 48  0  0  0  0  0  0  0  0999 V2000
   -0.1846   -0.7663    2.3753 C   0  0  0  0  0  0  0  0  0  0  0  0
    0.5240   -1.1918    3.0893 H   0  0  0  0  0  0  0  0  0  0  0  0
    0.5669   -0.4700    1.0477 C   0  0  0  0  0  0  0  0  0  0  0  0
    0.9635   -1.4382    0.6952 H   0  0  0  0  0  0  0  0  0  0  0  0
   -0.3994    0.0247   -0.0324 C   0  0  0  0  0  0  0  0  0  0  0  0
   -0.8590    0.9751    0.2544 H   0  0  0  0  0  0  0  0  0  0  0  0
   -1.4794   -1.0435   -0.2203 C   0  0  0  0  0  0  0  0  0  0  0  0
   -2.2168   -0.7123   -0.9608 H   0  0  0  0  0  0  0  0  0  0  0  0
   -2.1356   -1.4178    1.1170 C   0  0  0  0  0  0  0  0  0  0  0  0
   -2.6776   -0.5573    1.5234 H   0  0  0  0  0  0  0  0  0  0  0  0
   -3.1008   -2.5948    0.9245 C   0  0  0  0  0  0  0  0  0  0  0  0
   -3.7120   -3.0008    2.1877 N   0  0  0  0  0  0  0  0  0  0  0  0
   -1.1095   -1.8394    2.0438 O   0  0  0  0  0  0  0  0  0  0  0  0
   -0.8879   -2.1612   -0.7343 F   0  0  0  0  0  0  0  0  0  0  0  0
    0.2721    0.2312   -1.2738 O   0  0  0  0  0  0  0  0  0  0  0  0
    1.7298    0.3974    1.1853 N   0  0  0  0  0  0  0  0  0  0  0  0
   -0.9064    0.2963    3.0015 O   0  0  0  0  0  0  0  0  0  0  0  0
   -0.2046    1.3955    3.5870 C   0  0  0  0  0  0  0  0  0  0  0  0
    0.6947    1.6140    3.0193 H   0  0  0  0  0  0  0  0  0  0  0  0
   -1.1836    2.5813    3.4585 C   0  0  0  0  0  0  0  0  0  0  0  0
   -2.1308    2.3454    3.9759 H   0  0  0  0  0  0  0  0  0  0  0  0
   -0.5862    3.8631    4.0203 C   0  0  0  0  0  0  0  0  0  0  0  0
    0.2311    4.2101    3.3757 H   0  0  0  0  0  0  0  0  0  0  0  0
   -0.1180    3.7056    5.4718 C   0  0  0  0  0  0  0  0  0  0  0  0
   -0.9885    3.6243    6.1345 H   0  0  0  0  0  0  0  0  0  0  0  0
    0.7713    2.4671    5.6494 C   0  0  0  0  0  0  0  0  0  0  0  0
    0.1218    1.1844    5.0849 C   0  0  0  0  0  0  0  0  0  0  0  0
   -0.8062    0.9713    5.6304 H   0  0  0  0  0  0  0  0  0  0  0  0
    1.0410    0.0648    5.2765 N   0  0  0  0  0  0  0  0  0  0  0  0
    0.6440    4.9004    5.8636 N   0  0  0  0  0  0  0  0  0  0  0  0
   -1.6082    4.8657    3.9844 O   0  0  0  0  0  0  0  0  0  0  0  0
   -1.4977    2.7877    2.0755 O   0  0  0  0  0  0  0  0  0  0  0  0
   -2.5703   -3.4571    0.4993 H   0  0  0  0  0  0  0  0  0  0  0  0
   -3.8889   -2.3288    0.2200 H   0  0  0  0  0  0  0  0  0  0  0  0
   -4.0048   -2.1719    2.7055 H   0  0  0  0  0  0  0  0  0  0  0  0
   -3.0128   -3.4649    2.7673 H   0  0  0  0  0  0  0  0  0  0  0  0
    0.6454   -0.6228   -1.5557 H   0  0  0  0  0  0  0  0  0  0  0  0
    2.2510    0.3887    0.3081 H   0  0  0  0  0  0  0  0  0  0  0  0
    2.3662    0.0006    1.8790 H   0  0  0  0  0  0  0  0  0  0  0  0
    1.0034    2.3345    6.7132 H   0  0  0  0  0  0  0  0  0  0  0  0
    1.7427    2.6228    5.1611 H   0  0  0  0  0  0  0  0  0  0  0  0
    1.4633    0.1212    6.2036 H   0  0  0  0  0  0  0  0  0  0  0  0
    0.5118   -0.8073    5.2714 H   0  0  0  0  0  0  0  0  0  0  0  0
    0.6476    4.9901    6.8779 H   0  0  0  0  0  0  0  0  0  0  0  0
    0.1737    5.7317    5.5103 H   0  0  0  0  0  0  0  0  0  0  0  0
   -1.3870    5.4987    3.2810 H   0  0  0  0  0  0  0  0  0  0  0  0
   -2.2169    2.1677    1.8627 H   0  0  0  0  0  0  0  0  0  0  0  0
  1  2  1  0  0  0  0
  3  1  1  0  0  0  0
  3  4  1  0  0  0  0
  5  3  1  0  0  0  0
  5  6  1  0  0  0  0
  7  5  1  0  0  0  0
  7  8  1  0  0  0  0
  9  7  1  0  0  0  0
  9 10  1  0  0  0  0
 11  9  1  0  0  0  0
 12 11  1  0  0  0  0
 13  9  1  0  0  0  0
 13  1  1  0  0  0  0
 14  7  1  0  0  0  0
 15  5  1  0  0  0  0
 16  3  1  0  0  0  0
 17  1  1  0  0  0  0
 18 17  1  0  0  0  0
 18 19  1  0  0  0  0
 20 18  1  0  0  0  0
 20 21  1  0  0  0  0
 22 20  1  0  0  0  0
 22 23  1  0  0  0  0
 24 22  1  0  0  0  0
 24 25  1  0  0  0  0
 26 24  1  0  0  0  0
 27 26  1  0  0  0  0
 27 28  1  0  0  0  0
 27 18  1  0  0  0  0
 29 27  1  0  0  0  0
 30 24  1  0  0  0  0
 31 22  1  0  0  0  0
 32 20  1  0  0  0  0
 11 33  1  0  0  0  0
 11 34  1  0  0  0  0
 12 35  1  0  0  0  0
 12 36  1  0  0  0  0
 15 37  1  0  0  0  0
 16 38  1  0  0  0  0
 16 39  1  0  0  0  0
 26 40  1  0  0  0  0
 26 41  1  0  0  0  0
 29 42  1  0  0  0  0
 29 43  1  0  0  0  0
 30 44  1  0  0  0  0
 30 45  1  0  0  0  0
 31 46  1  0  0  0  0
 32 47  1  0  0  0  0
M  END
>  <energy>
47.489535089180592

$$$$
