@<TRIPOS>MOLECULE
*****
 26 25 0 0 0
SMALL
GASTEIGER

@<TRIPOS>ATOM
      1 N           2.9962   -1.4594    0.2131 N.3     1  ARG1       -0.3215
      2 CA          2.4645   -0.0913    0.0904 C.3     1  ARG1        0.0610
      3 HA          2.7683    0.4879    0.9691 H       1  ARG1        0.0534
      4 C           0.9367   -0.1277    0.0677 C.2     1  ARG1        0.1369
      5 O           0.2790   -1.1648    0.0422 O.2     1  ARG1       -0.2994
      6 CB          2.9801    0.5770   -1.1896 C.3     1  ARG1       -0.0283
      7 CG          4.5095    0.6594   -1.2489 C.3     1  ARG1       -0.0204
      8 CD          4.9846    1.3460   -2.5263 C.3     1  ARG1        0.0646
      9 NE          6.4542    1.3982   -2.5768 N.pl3   1  ARG1       -0.2787
     10 CZ          7.1604    1.9384   -3.5816 C.cat   1  ARG1        0.3410
     11 NH1         6.5681    2.4938   -4.6416 N.pl3   1  ARG1       -0.2919
     12 HH11        7.1027    2.8996   -5.3982 H       1  ARG1        0.2545
     13 HH12        5.5610    2.5204   -4.7274 H       1  ARG1        0.2545
     14 NH2         8.4961    1.9272   -3.5287 N.pl3   1  ARG1       -0.2919
     15 H1          2.5356   -2.0414   -0.4956 H       1  ARG1        0.1188
     16 H2          2.6341   -1.8599    1.0853 H       1  ARG1        0.1188
     17 H           0.4394    0.8578    0.0760 H       1  ARG1        0.1043
     18 HB1         2.5619    1.5898   -1.2585 H       1  ARG1        0.0285
     19 HB2         2.6087    0.0349   -2.0698 H       1  ARG1        0.0285
     20 HG1         4.9508   -0.3437   -1.2068 H       1  ARG1        0.0296
     21 HG2         4.8887    1.2059   -0.3768 H       1  ARG1        0.0296
     22 HD1         4.6042    2.3722   -2.5588 H       1  ARG1        0.0655
     23 HD2         4.6332    0.7875   -3.4002 H       1  ARG1        0.0655
     24 HE          6.9738    0.9861   -1.8106 H       1  ARG1        0.2578
     25 HH21        8.9958    1.5172   -2.7503 H       1  ARG1        0.2545
     26 HH22        9.0565    2.3264   -4.2709 H       1  ARG1        0.2545
@<TRIPOS>BOND
     1     1    15    1
     2     1    16    1
     3     2     4    1
     4     2     6    1
     5     2     3    1
     6     2     1    1
     7     4     5    2
     8     4    17    1
     9     6     7    1
    10     6    18    1
    11     6    19    1
    12     7     8    1
    13     7    20    1
    14     7    21    1
    15     8     9    1
    16     8    22    1
    17     8    23    1
    18     9    10    1
    19     9    24    1
    20    10    11    2
    21    10    14    1
    22    11    12    1
    23    11    13    1
    24    14    25    1
    25    14    26    1
