
 OpenBabel03221817243D

 26 25  0  0  1  0  0  0  0  0999 V2000
    2.9962   -1.4594    0.2131 N   0  0  0  0  0  0  0  0  0  0  0  0
    2.4645   -0.0913    0.0904 C   0  0  2  0  0  0  0  0  0  0  0  0
    2.7683    0.4879    0.9691 H   0  0  0  0  0  0  0  0  0  0  0  0
    0.9367   -0.1277    0.0677 C   0  0  0  0  0  0  0  0  0  0  0  0
    0.2790   -1.1648    0.0422 O   0  0  0  0  0  0  0  0  0  0  0  0
    2.9801    0.5770   -1.1896 C   0  0  0  0  0  0  0  0  0  0  0  0
    4.5095    0.6594   -1.2489 C   0  0  0  0  0  0  0  0  0  0  0  0
    4.9846    1.3460   -2.5263 C   0  0  0  0  0  0  0  0  0  0  0  0
    6.4542    1.3982   -2.5768 N   0  0  0  0  0  0  0  0  0  0  0  0
    7.1604    1.9384   -3.5816 C   0  0  0  0  0  0  0  0  0  0  0  0
    6.5681    2.4938   -4.6416 N   0  3  0  0  0  0  0  0  0  0  0  0
    7.1027    2.8996   -5.3982 H   0  0  0  0  0  0  0  0  0  0  0  0
    5.5610    2.5204   -4.7274 H   0  0  0  0  0  0  0  0  0  0  0  0
    8.4961    1.9272   -3.5287 N   0  0  0  0  0  0  0  0  0  0  0  0
    2.5356   -2.0414   -0.4956 H   0  0  0  0  0  0  0  0  0  0  0  0
    2.6341   -1.8599    1.0853 H   0  0  0  0  0  0  0  0  0  0  0  0
    0.4394    0.8578    0.0760 H   0  0  0  0  0  0  0  0  0  0  0  0
    2.5619    1.5898   -1.2585 H   0  0  0  0  0  0  0  0  0  0  0  0
    2.6087    0.0349   -2.0698 H   0  0  0  0  0  0  0  0  0  0  0  0
    4.9508   -0.3437   -1.2068 H   0  0  0  0  0  0  0  0  0  0  0  0
    4.8887    1.2059   -0.3768 H   0  0  0  0  0  0  0  0  0  0  0  0
    4.6042    2.3722   -2.5588 H   0  0  0  0  0  0  0  0  0  0  0  0
    4.6332    0.7875   -3.4002 H   0  0  0  0  0  0  0  0  0  0  0  0
    6.9738    0.9861   -1.8106 H   0  0  0  0  0  0  0  0  0  0  0  0
    8.9958    1.5172   -2.7503 H   0  0  0  0  0  0  0  0  0  0  0  0
    9.0565    2.3264   -4.2709 H   0  0  0  0  0  0  0  0  0  0  0  0
  1 15  1  0  0  0  0
  1 16  1  0  0  0  0
  2  4  1  0  0  0  0
  2  6  1  0  0  0  0
  2  3  1  1  0  0  0
  2  1  1  0  0  0  0
  4  5  2  0  0  0  0
  4 17  1  0  0  0  0
  6  7  1  0  0  0  0
  6 18  1  0  0  0  0
  6 19  1  0  0  0  0
  7  8  1  0  0  0  0
  7 20  1  0  0  0  0
  7 21  1  0  0  0  0
  8  9  1  0  0  0  0
  8 22  1  0  0  0  0
  8 23  1  0  0  0  0
  9 10  1  0  0  0  0
  9 24  1  0  0  0  0
 10 11  2  0  0  0  0
 10 14  1  0  0  0  0
 11 12  1  0  0  0  0
 11 13  1  0  0  0  0
 14 25  1  0  0  0  0
 14 26  1  0  0  0  0
M  CHG  1  11   1
M  END
$$$$
