REMARK  5 active torsions:
REMARK  status: ('A' for Active; 'I' for Inactive)
REMARK    1  A    between atoms: N_3  and  C_2 
REMARK    2  A    between atoms: C_14  and  C_12 
REMARK    3  A    between atoms: O_15  and  C_14 
REMARK    4  A    between atoms: C_16  and  C_14 
REMARK    5  A    between atoms: O_18  and  C_16 
ROOT
ATOM      1  N   UNL d   1      -2.009  -1.411  -0.882  0.00  0.00    -0.206 NA
ATOM      2  C   UNL d   1      -2.775  -2.001  -0.009  0.00  0.00     0.181 C 
ATOM      3  N   UNL d   1      -2.885  -1.540   1.295  0.00  0.00    -0.297 N 
ATOM      4  H   UNL d   1      -3.475  -2.060   1.942  0.00  0.00     0.171 HD
ATOM      5  C   UNL d   1      -2.058  -0.568   1.825  0.00  0.00     0.272 C 
ATOM      6  O   UNL d   1      -2.019  -0.269   3.015  0.00  0.00    -0.266 OA
ATOM      7  C   UNL d   1      -1.143   0.049   0.816  0.00  0.00     0.118 C 
ATOM      8  C   UNL d   1      -1.310  -0.280  -0.489  0.00  0.00     0.133 C 
ATOM      9  N   UNL d   1      -0.475   0.379  -1.410  0.00  0.00    -0.274 NA
ATOM     10  C   UNL d   1       0.046   1.694  -1.055  0.00  0.00     0.116 C 
ATOM     11  C   UNL d   1       0.696   1.651   0.344  0.00  0.00     0.105 C 
ATOM     12  N   UNL d   1      -0.332   1.095   1.263  0.00  0.00    -0.277 NA
ATOM     13  H   UNL d   1      -0.932   0.388  -2.324  0.00  0.00     0.129 HD
ATOM     14  H   UNL d   1      -0.892   1.827   1.694  0.00  0.00     0.128 HD
ENDROOT
BRANCH  11  15
ATOM     15  C   UNL d   1       2.022   0.873   0.595  0.00  0.00     0.165 C 
BRANCH  15  16
ATOM     16  O   UNL d   1       1.781  -0.535   0.674  0.00  0.00    -0.391 OA
ATOM     17  H   UNL d   1       2.219  -0.971  -0.074  0.00  0.00     0.210 HD
ENDBRANCH  15  16
BRANCH  15  18
ATOM     18  C   UNL d   1       3.302   1.173  -0.224  0.00  0.00     0.144 C 
ATOM     19  C   UNL d   1       3.138   1.648  -1.652  0.00  0.00     0.042 C 
BRANCH  18  20
ATOM     20  O   UNL d   1       4.124  -0.003  -0.289  0.00  0.00    -0.393 OA
ATOM     21  H   UNL d   1       4.195  -0.372   0.608  0.00  0.00     0.210 HD
ENDBRANCH  18  20
ENDBRANCH  15  18
ENDBRANCH  11  15
BRANCH   2  22
ATOM     22  N   UNL d   1      -3.588  -3.064  -0.349  0.00  0.00    -0.272 NA
ATOM     23  H   UNL d   1      -3.232  -3.594  -1.143  0.00  0.00     0.127 HD
ATOM     24  H   UNL d   1      -4.546  -2.784  -0.564  0.00  0.00     0.127 HD
ENDBRANCH   2  22
TORSDOF 5
