@<TRIPOS>MOLECULE
4LVX_H4B_A_101
 32 33 0 0 0
SMALL
GASTEIGER

@<TRIPOS>ATOM
      1 N          -2.0091   -1.4115   -0.8824 N.ar    1  UNL1       -0.1994
      2 C          -2.7754   -2.0013   -0.0091 C.ar    1  UNL1        0.1948
      3 N          -3.5883   -3.0643   -0.3486 N.pl3   1  UNL1       -0.3289
      4 N          -2.8854   -1.5404    1.2947 N.ar    1  UNL1       -0.2937
      5 H          -3.4751   -2.0599    1.9418 H       1  UNL1        0.1716
      6 C          -2.0584   -0.5678    1.8253 C.ar    1  UNL1        0.2755
      7 O          -2.0190   -0.2686    3.0151 O.2     1  UNL1       -0.2657
      8 C          -1.1432    0.0491    0.8159 C.ar    1  UNL1        0.1330
      9 C          -1.3101   -0.2799   -0.4894 C.ar    1  UNL1        0.1487
     10 N          -0.4755    0.3788   -1.4104 N.pl3   1  UNL1       -0.3255
     11 C           0.0458    1.6945   -1.0550 C.3     1  UNL1        0.0313
     12 C           0.6957    1.6506    0.3443 C.3     1  UNL1        0.0646
     13 H           0.8731    2.6930    0.6353 H       1  UNL1        0.0539
     14 N          -0.3323    1.0945    1.2626 N.pl3   1  UNL1       -0.3301
     15 C           2.0225    0.8728    0.5950 C.3     1  UNL1        0.1004
     16 H           2.3005    1.1547    1.6234 H       1  UNL1        0.0638
     17 O           1.7807   -0.5346    0.6736 O.3     1  UNL1       -0.3874
     18 C           3.3024    1.1728   -0.2237 C.3     1  UNL1        0.0801
     19 H           3.8966    1.9198    0.3162 H       1  UNL1        0.0617
     20 C           3.1380    1.6479   -1.6520 C.3     1  UNL1       -0.0364
     21 O           4.1239   -0.0032   -0.2887 O.3     1  UNL1       -0.3894
     22 H          -3.2316   -3.5939   -1.1430 H       1  UNL1        0.1451
     23 H          -4.5456   -2.7843   -0.5636 H       1  UNL1        0.1451
     24 H          -0.9316    0.3877   -2.3240 H       1  UNL1        0.1476
     25 H           0.6984    2.0584   -1.8400 H       1  UNL1        0.0481
     26 H          -0.7993    2.3993   -1.0436 H       1  UNL1        0.0481
     27 H          -0.8922    1.8275    1.6938 H       1  UNL1        0.1467
     28 H           2.2189   -0.9709   -0.0740 H       1  UNL1        0.2100
     29 H           2.6924    2.6455   -1.6828 H       1  UNL1        0.0255
     30 H           2.5458    0.9416   -2.2431 H       1  UNL1        0.0255
     31 H           4.1126    1.7374   -2.1388 H       1  UNL1        0.0255
     32 H           4.1950   -0.3718    0.6082 H       1  UNL1        0.2099
@<TRIPOS>BOND
     1     2     1   ar
     2     3     2    1
     3     4     2   ar
     4     4     5    1
     5     6     4   ar
     6     7     6    2
     7     8     6   ar
     8     9     8   ar
     9     9     1   ar
    10    10     9    1
    11    11    10    1
    12    12    11    1
    13    12    13    1
    14    14    12    1
    15    14     8    1
    16    15    12    1
    17    15    16    1
    18    17    15    1
    19    18    15    1
    20    18    19    1
    21    20    18    1
    22    21    18    1
    23     3    22    1
    24     3    23    1
    25    10    24    1
    26    11    25    1
    27    11    26    1
    28    14    27    1
    29    17    28    1
    30    20    29    1
    31    20    30    1
    32    20    31    1
    33    21    32    1
