ligand.pdb
  1228              3D

 24 23  0  0  0  0  0  0  0  0999 V2000
   -2.7112    0.9184   -1.3123 N   0  0  0  0  0  0  0  0  0  0  0  0
   -2.0224    0.1419   -0.2791 C   0  0  0  0  0  0  0  0  0  0  0  0
   -1.4638    0.8268    0.3702 H   0  0  0  0  0  0  0  0  0  0  0  0
   -1.0346   -0.7691   -0.9834 C   0  0  0  0  0  0  0  0  0  0  0  0
   -1.1238   -1.9844   -1.0841 O   0  0  0  0  0  0  0  0  0  0  0  0
   -0.0007   -0.0501   -1.4960 O   0  0  0  0  0  0  0  0  0  0  0  0
   -3.0618   -0.6315    0.5422 C   0  0  0  0  0  0  0  0  0  0  0  0
   -2.4802   -1.1647    1.8577 C   0  0  0  0  0  0  0  0  0  0  0  0
   -3.4963   -2.0197    2.6318 C   0  0  0  0  0  0  0  0  0  0  0  0
   -4.0222   -1.3477    3.9008 C   0  0  0  0  0  0  0  0  0  0  0  0
   -4.9103   -0.2358    3.5834 N   0  0  0  0  0  0  0  0  0  0  0  0
   -2.9796    0.3154   -2.0888 H   0  0  0  0  0  0  0  0  0  0  0  0
   -2.0689    1.6067   -1.7030 H   0  0  0  0  0  0  0  0  0  0  0  0
    0.6578   -0.6228   -1.9409 H   0  0  0  0  0  0  0  0  0  0  0  0
   -3.4776   -1.4597   -0.0459 H   0  0  0  0  0  0  0  0  0  0  0  0
   -3.9033    0.0311    0.7819 H   0  0  0  0  0  0  0  0  0  0  0  0
   -1.5980   -1.7804    1.6467 H   0  0  0  0  0  0  0  0  0  0  0  0
   -2.1333   -0.3241    2.4706 H   0  0  0  0  0  0  0  0  0  0  0  0
   -4.3354   -2.3164    1.9897 H   0  0  0  0  0  0  0  0  0  0  0  0
   -3.0032   -2.9563    2.9248 H   0  0  0  0  0  0  0  0  0  0  0  0
   -4.5714   -2.0849    4.4974 H   0  0  0  0  0  0  0  0  0  0  0  0
   -3.1903   -0.9919    4.5183 H   0  0  0  0  0  0  0  0  0  0  0  0
   -5.8038   -0.5992    3.2542 H   0  0  0  0  0  0  0  0  0  0  0  0
   -5.1159    0.2821    4.4369 H   0  0  0  0  0  0  0  0  0  0  0  0
  2  1  1  0  0  0  0
  2  3  1  0  0  0  0
  4  2  1  0  0  0  0
  5  4  2  0  0  0  0
  6  4  1  0  0  0  0
  7  2  1  0  0  0  0
  8  7  1  0  0  0  0
  9  8  1  0  0  0  0
 10  9  1  0  0  0  0
 11 10  1  0  0  0  0
  1 12  1  0  0  0  0
  1 13  1  0  0  0  0
  6 14  1  0  0  0  0
  7 15  1  0  0  0  0
  7 16  1  0  0  0  0
  8 17  1  0  0  0  0
  8 18  1  0  0  0  0
  9 19  1  0  0  0  0
  9 20  1  0  0  0  0
 10 21  1  0  0  0  0
 10 22  1  0  0  0  0
 11 23  1  0  0  0  0
 11 24  1  0  0  0  0
M  END
>  <energy>
6.0001935770405446

$$$$
