REMARK  1 active torsions:
REMARK  status: ('A' for Active; 'I' for Inactive)
REMARK    1  A    between atoms: C_3  and  N_15 
ROOT
ATOM      1  N   UNL d   1       2.113  -0.644  -0.020  0.00  0.00    -0.154 N 
ATOM      2  H   UNL d   1       3.010  -1.097  -0.063  0.00  0.00     0.187 HD
ATOM      3  C   UNL d   1       2.028   0.733  -0.058  0.00  0.00     0.702 A 
ATOM      4  N   UNL d   1       0.898   1.386  -0.028  0.00  0.00    -0.046 NA
ATOM      5  C   UNL d   1      -0.192   0.586   0.008  0.00  0.00     0.164 A 
ATOM      6  C   UNL d   1      -0.232  -0.790   0.019  0.00  0.00     0.101 A 
ATOM      7  C   UNL d   1       1.023  -1.494   0.008  0.00  0.00     0.275 A 
ATOM      8  O   UNL d   1       1.134  -2.713   0.014  0.00  0.00    -0.267 OA
ATOM      9  C   UNL d   1      -1.587  -1.185   0.022  0.00  0.00     0.079 A 
ATOM     10  C   UNL d   1      -2.116  -2.514   0.018  0.00  0.00     0.102 C 
ATOM     11  N   UNL d   1      -2.581  -3.577   0.013  0.00  0.00    -0.191 NA
ATOM     12  C   UNL d   1      -2.341  -0.022   0.019  0.00  0.00     0.113 A 
ATOM     13  N   UNL d   1      -1.476   1.049   0.013  0.00  0.00    -0.348 N 
ATOM     14  H   UNL d   1      -1.730   2.028   0.002  0.00  0.00     0.167 HD
ENDROOT
BRANCH   3  15
ATOM     15  N   UNL d   1       3.201   1.406  -0.135  0.00  0.00    -0.233 N 
ATOM     16  H   UNL d   1       4.051   0.971   0.195  0.00  0.00     0.174 HD
ATOM     17  H   UNL d   1       3.123   2.397   0.068  0.00  0.00     0.174 HD
ENDBRANCH   3  15
TORSDOF 1
