@<TRIPOS>MOLECULE
3GCA_PQ0_A_34
 18 19 0 0 0
SMALL
GASTEIGER

@<TRIPOS>ATOM
      1 N           2.1134   -0.6439   -0.0198 N.ar    1  UNL1       -0.2947
      2 H           3.0101   -1.0965   -0.0634 H       1  UNL1        0.1716
      3 C           2.0276    0.7326   -0.0580 C.ar    1  UNL1        0.1949
      4 N           0.8976    1.3857   -0.0279 N.ar    1  UNL1       -0.1982
      5 C          -0.1919    0.5856    0.0076 C.ar    1  UNL1        0.1482
      6 C          -0.2318   -0.7900    0.0188 C.ar    1  UNL1        0.1003
      7 C           1.0231   -1.4936    0.0080 C.ar    1  UNL1        0.2632
      8 O           1.1339   -2.7129    0.0143 O.2     1  UNL1       -0.2670
      9 C          -1.5871   -1.1845    0.0220 C.ar    1  UNL1        0.0835
     10 C          -2.1160   -2.5142    0.0178 C.1     1  UNL1        0.1015
     11 N          -2.5811   -3.5771    0.0134 N.1     1  UNL1       -0.1908
     12 C          -2.3408   -0.0218    0.0186 C.ar    1  UNL1        0.0217
     13 N          -1.4758    1.0493    0.0134 N.ar    1  UNL1       -0.3443
     14 H          -1.7298    2.0284    0.0019 H       1  UNL1        0.1668
     15 N           3.2015    1.4063   -0.1350 N.pl3   1  UNL1       -0.3289
     16 H          -3.4121    0.1370    0.0136 H       1  UNL1        0.0820
     17 H           4.0508    0.9713    0.1946 H       1  UNL1        0.1451
     18 H           3.1235    2.3974    0.0677 H       1  UNL1        0.1451
@<TRIPOS>BOND
     1     1     2    1
     2     1     3   ar
     3     1     7   ar
     4     3     4   ar
     5     3    15    1
     6     4     5   ar
     7     5     6   ar
     8     5    13   ar
     9     6     7   ar
    10     6     9   ar
    11     7     8    2
    12     9    10    1
    13     9    12   ar
    14    10    11    3
    15    12    13   ar
    16    12    16    1
    17    13    14    1
    18    15    17    1
    19    15    18    1
