REMARK  13 active torsions:
REMARK  status: ('A' for Active; 'I' for Inactive)
REMARK    1  A    between atoms: N_1  and  C_2 
REMARK    2  A    between atoms: C_2  and  C_3 
REMARK    3  A    between atoms: C_3  and  C_4 
REMARK    4  A    between atoms: C_4  and  N_5 
REMARK    5  A    between atoms: N_5  and  C_6 
REMARK    6  A    between atoms: C_6  and  C_7 
REMARK    7  A    between atoms: C_7  and  C_8 
REMARK    8  A    between atoms: C_8  and  C_9 
REMARK    9  A    between atoms: C_9  and  N_10 
REMARK   10  A    between atoms: N_10  and  C_11 
REMARK   11  A    between atoms: C_11  and  C_12 
REMARK   12  A    between atoms: C_12  and  C_13 
REMARK   13  A    between atoms: C_13  and  N_14 
ROOT
ATOM      1  C   UNL d   1       7.033  -1.740  -3.813  0.00  0.00     0.032 C 
ENDROOT
BRANCH   1   2
ATOM      2  C   UNL d   1       6.530  -1.118  -2.511  0.00  0.00     0.269 C 
BRANCH   2   3
ATOM      3  N   UNL d   1       5.067  -1.121  -2.496  0.00  0.00     0.083 N 
ATOM      4  H   UNL d   1       4.714  -0.603  -3.301  0.00  0.00     0.315 HD
BRANCH   3   5
ATOM      5  C   UNL d   1       4.556  -0.517  -1.264  0.00  0.00     0.271 C 
BRANCH   5   6
ATOM      6  C   UNL d   1       3.026  -0.521  -1.270  0.00  0.00     0.059 C 
BRANCH   6   7
ATOM      7  C   UNL d   1       2.483   0.094   0.018  0.00  0.00     0.268 C 
BRANCH   7   8
ATOM      8  N   UNL d   1       1.024   0.099   0.012  0.00  0.00     0.078 N 
ATOM      9  H   UNL d   1       0.683   0.451   0.905  0.00  0.00     0.312 HD
ATOM     10  H   UNL d   1       0.680  -0.858  -0.068  0.00  0.00     0.312 HD
ENDBRANCH   7   8
ENDBRANCH   6   7
ENDBRANCH   5   6
ENDBRANCH   3   5
ENDBRANCH   2   3
ENDBRANCH   1   2
BRANCH   1  11
ATOM     11  C   UNL d   1       8.562  -1.768  -3.853  0.00  0.00     0.032 C 
BRANCH  11  12
ATOM     12  C   UNL d   1       9.065  -2.390  -5.156  0.00  0.00     0.269 C 
BRANCH  12  13
ATOM     13  N   UNL d   1      10.528  -2.388  -5.171  0.00  0.00     0.083 N 
ATOM     14  H   UNL d   1      10.880  -2.909  -4.367  0.00  0.00     0.315 HD
BRANCH  13  15
ATOM     15  C   UNL d   1      11.038  -2.989  -6.404  0.00  0.00     0.271 C 
BRANCH  15  16
ATOM     16  C   UNL d   1      12.568  -2.988  -6.397  0.00  0.00     0.059 C 
BRANCH  16  17
ATOM     17  C   UNL d   1      13.111  -3.599  -7.687  0.00  0.00     0.268 C 
BRANCH  17  18
ATOM     18  N   UNL d   1      14.570  -3.608  -7.679  0.00  0.00     0.078 N 
ATOM     19  H   UNL d   1      14.917  -2.653  -7.594  0.00  0.00     0.312 HD
ATOM     20  H   UNL d   1      14.912  -3.956  -8.574  0.00  0.00     0.312 HD
ENDBRANCH  17  18
ENDBRANCH  16  17
ENDBRANCH  15  16
ENDBRANCH  13  15
ENDBRANCH  12  13
ENDBRANCH  11  12
ENDBRANCH   1  11
TORSDOF 13
