@<TRIPOS>MOLECULE
1J8G_SPM_A_62
 40 39 0 0 0
SMALL
GASTEIGER

@<TRIPOS>ATOM
      1 N           1.0245    0.0986    0.0117 N.3     1  UNL1       -0.3299
      2 C           2.4830    0.0944    0.0181 C.3     1  UNL1       -0.0058
      3 C           3.0262   -0.5214   -1.2705 C.3     1  UNL1       -0.0281
      4 C           4.5562   -0.5167   -1.2643 C.3     1  UNL1       -0.0030
      5 N           5.0668   -1.1209   -2.4956 N.3     1  UNL1       -0.3159
      6 C           6.5296   -1.1176   -2.5110 C.3     1  UNL1       -0.0041
      7 C           7.0327   -1.7404   -3.8135 C.3     1  UNL1       -0.0393
      8 C           8.5622   -1.7679   -3.8532 C.3     1  UNL1       -0.0393
      9 C           9.0653   -2.3899   -5.1558 C.3     1  UNL1       -0.0041
     10 N          10.5281   -2.3880   -5.1711 N.3     1  UNL1       -0.3159
     11 C          11.0380   -2.9886   -6.4045 C.3     1  UNL1       -0.0030
     12 C          12.5682   -2.9877   -6.3966 C.3     1  UNL1       -0.0281
     13 C          13.1114   -3.5987   -7.6873 C.3     1  UNL1       -0.0058
     14 N          14.5699   -3.6076   -7.6789 N.3     1  UNL1       -0.3299
     15 H           0.6829    0.4511    0.9051 H       1  UNL1        0.1182
     16 H           0.6800   -0.8579   -0.0676 H       1  UNL1        0.1182
     17 H           2.8395   -0.4702    0.8867 H       1  UNL1        0.0422
     18 H           2.8400    1.1247    0.1216 H       1  UNL1        0.0422
     19 H           2.6556    0.0429   -2.1362 H       1  UNL1        0.0290
     20 H           2.6597   -1.5511   -1.3742 H       1  UNL1        0.0290
     21 H           4.9158   -1.0831   -0.3970 H       1  UNL1        0.0424
     22 H           4.9180    0.5144   -1.1706 H       1  UNL1        0.0424
     23 H           4.7136   -0.6030   -3.3008 H       1  UNL1        0.1219
     24 H           6.9125   -1.6946   -1.6608 H       1  UNL1        0.0424
     25 H           6.9088   -0.0922   -2.4252 H       1  UNL1        0.0424
     26 H           6.6548   -1.1692   -4.6700 H       1  UNL1        0.0278
     27 H           6.6463   -2.7633   -3.9096 H       1  UNL1        0.0278
     28 H           8.9403   -2.3399   -2.9962 H       1  UNL1        0.0278
     29 H           8.9490   -0.7455   -3.7556 H       1  UNL1        0.0278
     30 H           8.6830   -1.8112   -6.0050 H       1  UNL1        0.0424
     31 H           8.6851   -3.4147   -5.2432 H       1  UNL1        0.0424
     32 H          10.8805   -2.9091   -4.3675 H       1  UNL1        0.1219
     33 H          10.6808   -2.4179   -7.2697 H       1  UNL1        0.0424
     34 H          10.6741   -4.0185   -6.5024 H       1  UNL1        0.0424
     35 H          12.9365   -3.5570   -5.5331 H       1  UNL1        0.0290
     36 H          12.9374   -1.9594   -6.2874 H       1  UNL1        0.0290
     37 H          12.7579   -3.0286   -8.5536 H       1  UNL1        0.0422
     38 H          12.7513   -4.6274   -7.7966 H       1  UNL1        0.0422
     39 H          14.9173   -2.6527   -7.5938 H       1  UNL1        0.1182
     40 H          14.9116   -3.9563   -8.5736 H       1  UNL1        0.1182
@<TRIPOS>BOND
     1     1     2    1
     2     1    15    1
     3     1    16    1
     4     2     3    1
     5     2    17    1
     6     2    18    1
     7     3     4    1
     8     3    19    1
     9     3    20    1
    10     4     5    1
    11     4    21    1
    12     4    22    1
    13     5     6    1
    14     5    23    1
    15     6     7    1
    16     6    24    1
    17     6    25    1
    18     7     8    1
    19     7    26    1
    20     7    27    1
    21     8     9    1
    22     8    28    1
    23     8    29    1
    24     9    10    1
    25     9    30    1
    26     9    31    1
    27    10    11    1
    28    10    32    1
    29    11    12    1
    30    11    33    1
    31    11    34    1
    32    12    13    1
    33    12    35    1
    34    12    36    1
    35    13    14    1
    36    13    37    1
    37    13    38    1
    38    14    39    1
    39    14    40    1
