1J8G_SPM_A_62
 OpenBabel03221816523D

 40 39  0  0  0  0  0  0  0  0999 V2000
    1.0245    0.0986    0.0117 N   0  0  0  0  0  0  0  0  0  0  0  0
    2.4830    0.0944    0.0181 C   0  0  0  0  0  0  0  0  0  0  0  0
    3.0262   -0.5214   -1.2705 C   0  0  0  0  0  0  0  0  0  0  0  0
    4.5562   -0.5167   -1.2643 C   0  0  0  0  0  0  0  0  0  0  0  0
    5.0668   -1.1209   -2.4956 N   0  0  0  0  0  0  0  0  0  0  0  0
    6.5296   -1.1176   -2.5110 C   0  0  0  0  0  0  0  0  0  0  0  0
    7.0327   -1.7404   -3.8135 C   0  0  0  0  0  0  0  0  0  0  0  0
    8.5622   -1.7679   -3.8532 C   0  0  0  0  0  0  0  0  0  0  0  0
    9.0653   -2.3899   -5.1558 C   0  0  0  0  0  0  0  0  0  0  0  0
   10.5281   -2.3880   -5.1711 N   0  0  0  0  0  0  0  0  0  0  0  0
   11.0380   -2.9886   -6.4045 C   0  0  0  0  0  0  0  0  0  0  0  0
   12.5682   -2.9877   -6.3966 C   0  0  0  0  0  0  0  0  0  0  0  0
   13.1114   -3.5987   -7.6873 C   0  0  0  0  0  0  0  0  0  0  0  0
   14.5699   -3.6076   -7.6789 N   0  0  0  0  0  0  0  0  0  0  0  0
    0.6829    0.4511    0.9051 H   0  0  0  0  0  0  0  0  0  0  0  0
    0.6800   -0.8579   -0.0676 H   0  0  0  0  0  0  0  0  0  0  0  0
    2.8395   -0.4702    0.8867 H   0  0  0  0  0  0  0  0  0  0  0  0
    2.8400    1.1247    0.1216 H   0  0  0  0  0  0  0  0  0  0  0  0
    2.6556    0.0429   -2.1362 H   0  0  0  0  0  0  0  0  0  0  0  0
    2.6597   -1.5511   -1.3742 H   0  0  0  0  0  0  0  0  0  0  0  0
    4.9158   -1.0831   -0.3970 H   0  0  0  0  0  0  0  0  0  0  0  0
    4.9180    0.5144   -1.1706 H   0  0  0  0  0  0  0  0  0  0  0  0
    4.7136   -0.6030   -3.3008 H   0  0  0  0  0  0  0  0  0  0  0  0
    6.9125   -1.6946   -1.6608 H   0  0  0  0  0  0  0  0  0  0  0  0
    6.9088   -0.0922   -2.4252 H   0  0  0  0  0  0  0  0  0  0  0  0
    6.6548   -1.1692   -4.6700 H   0  0  0  0  0  0  0  0  0  0  0  0
    6.6463   -2.7633   -3.9096 H   0  0  0  0  0  0  0  0  0  0  0  0
    8.9403   -2.3399   -2.9962 H   0  0  0  0  0  0  0  0  0  0  0  0
    8.9490   -0.7455   -3.7556 H   0  0  0  0  0  0  0  0  0  0  0  0
    8.6830   -1.8112   -6.0050 H   0  0  0  0  0  0  0  0  0  0  0  0
    8.6851   -3.4147   -5.2432 H   0  0  0  0  0  0  0  0  0  0  0  0
   10.8805   -2.9091   -4.3675 H   0  0  0  0  0  0  0  0  0  0  0  0
   10.6808   -2.4179   -7.2697 H   0  0  0  0  0  0  0  0  0  0  0  0
   10.6741   -4.0185   -6.5024 H   0  0  0  0  0  0  0  0  0  0  0  0
   12.9365   -3.5570   -5.5331 H   0  0  0  0  0  0  0  0  0  0  0  0
   12.9374   -1.9594   -6.2874 H   0  0  0  0  0  0  0  0  0  0  0  0
   12.7579   -3.0286   -8.5536 H   0  0  0  0  0  0  0  0  0  0  0  0
   12.7513   -4.6274   -7.7966 H   0  0  0  0  0  0  0  0  0  0  0  0
   14.9173   -2.6527   -7.5938 H   0  0  0  0  0  0  0  0  0  0  0  0
   14.9116   -3.9563   -8.5736 H   0  0  0  0  0  0  0  0  0  0  0  0
  1  2  1  0  0  0  0
  1 15  1  0  0  0  0
  1 16  1  0  0  0  0
  2  3  1  0  0  0  0
  2 17  1  0  0  0  0
  2 18  1  0  0  0  0
  3  4  1  0  0  0  0
  3 19  1  0  0  0  0
  3 20  1  0  0  0  0
  4  5  1  0  0  0  0
  4 21  1  0  0  0  0
  4 22  1  0  0  0  0
  5  6  1  0  0  0  0
  5 23  1  0  0  0  0
  6  7  1  0  0  0  0
  6 24  1  0  0  0  0
  6 25  1  0  0  0  0
  7  8  1  0  0  0  0
  7 26  1  0  0  0  0
  7 27  1  0  0  0  0
  8  9  1  0  0  0  0
  8 28  1  0  0  0  0
  8 29  1  0  0  0  0
  9 10  1  0  0  0  0
  9 30  1  0  0  0  0
  9 31  1  0  0  0  0
 10 11  1  0  0  0  0
 10 32  1  0  0  0  0
 11 12  1  0  0  0  0
 11 33  1  0  0  0  0
 11 34  1  0  0  0  0
 12 13  1  0  0  0  0
 12 35  1  0  0  0  0
 12 36  1  0  0  0  0
 13 14  1  0  0  0  0
 13 37  1  0  0  0  0
 13 38  1  0  0  0  0
 14 39  1  0  0  0  0
 14 40  1  0  0  0  0
M  END
$$$$
