@<TRIPOS>MOLECULE
4NFO_SPM_C_101
 40 39 0 0 0
SMALL
GASTEIGER

@<TRIPOS>ATOM
      1 N           0.9101   -0.1007   -0.0518 N.3     1  UNL1       -0.3299
      2 C           2.3686   -0.0972   -0.0611 C.3     1  UNL1       -0.0058
      3 C           2.9125    0.8412    1.0152 C.3     1  UNL1       -0.0281
      4 C           4.4423    0.8351    1.0097 C.3     1  UNL1       -0.0030
      5 N           4.9531    1.7468    2.0343 N.3     1  UNL1       -0.3159
      6 C           6.4158    1.7471    2.0505 C.3     1  UNL1       -0.0041
      7 C           6.9192    2.6967    3.1376 C.3     1  UNL1       -0.0393
      8 C           8.4486    2.7334    3.1687 C.3     1  UNL1       -0.0393
      9 C           8.9520    3.6840    4.2548 C.3     1  UNL1       -0.0041
     10 N          10.4154    3.6864    4.2692 N.3     1  UNL1       -0.3159
     11 C          10.9253    4.5976    5.2945 C.3     1  UNL1       -0.0030
     12 C          12.4552    4.5940    5.2870 C.3     1  UNL1       -0.0281
     13 C          12.9989    5.5300    6.3656 C.3     1  UNL1       -0.0058
     14 N          14.4574    5.5360    6.3545 N.3     1  UNL1       -0.3299
     15 H           0.5679   -0.6800   -0.8173 H       1  UNL1        0.1182
     16 H           0.5647    0.8418   -0.2312 H       1  UNL1        0.1182
     17 H           2.7236    0.2149   -1.0495 H       1  UNL1        0.0422
     18 H           2.7267   -1.1175    0.1143 H       1  UNL1        0.0422
     19 H           2.5424    0.5294    2.0007 H       1  UNL1        0.0290
     20 H           2.5457    1.8611    0.8395 H       1  UNL1        0.0290
     21 H           4.8016    1.1488    0.0223 H       1  UNL1        0.0424
     22 H           4.8044   -0.1837    1.1952 H       1  UNL1        0.0424
     23 H           4.5993    1.4637    2.9488 H       1  UNL1        0.1219
     24 H           6.7991    2.0748    1.0770 H       1  UNL1        0.0424
     25 H           6.7947    0.7361    2.2430 H       1  UNL1        0.0424
     26 H           6.5413    2.3764    4.1169 H       1  UNL1        0.0278
     27 H           6.5327    3.7078    2.9566 H       1  UNL1        0.0278
     28 H           8.8264    3.0527    2.1891 H       1  UNL1        0.0278
     29 H           8.8351    1.7224    3.3507 H       1  UNL1        0.0278
     30 H           8.5701    3.3560    5.2290 H       1  UNL1        0.0424
     31 H           8.5716    4.6943    4.0625 H       1  UNL1        0.0424
     32 H          10.7674    3.9711    3.3551 H       1  UNL1        0.1219
     33 H          10.5677    4.2821    6.2821 H       1  UNL1        0.0424
     34 H          10.5614    5.6158    5.1109 H       1  UNL1        0.0424
     35 H          12.8234    4.9096    4.3021 H       1  UNL1        0.0290
     36 H          12.8239    3.5744    5.4591 H       1  UNL1        0.0290
     37 H          12.6458    5.2140    7.3534 H       1  UNL1        0.0422
     38 H          12.6389    6.5502    6.1940 H       1  UNL1        0.0422
     39 H          14.8048    4.5933    6.5295 H       1  UNL1        0.1182
     40 H          14.7995    6.1126    7.1222 H       1  UNL1        0.1182
@<TRIPOS>BOND
     1     1     2    1
     2     1    15    1
     3     1    16    1
     4     2     3    1
     5     2    17    1
     6     2    18    1
     7     3     4    1
     8     3    19    1
     9     3    20    1
    10     4     5    1
    11     4    21    1
    12     4    22    1
    13     5     6    1
    14     5    23    1
    15     6     7    1
    16     6    24    1
    17     6    25    1
    18     7     8    1
    19     7    26    1
    20     7    27    1
    21     8     9    1
    22     8    28    1
    23     8    29    1
    24     9    10    1
    25     9    30    1
    26     9    31    1
    27    10    11    1
    28    10    32    1
    29    11    12    1
    30    11    33    1
    31    11    34    1
    32    12    13    1
    33    12    35    1
    34    12    36    1
    35    13    14    1
    36    13    37    1
    37    13    38    1
    38    14    39    1
    39    14    40    1
