4NFO_SPM_C_101
 OpenBabel03221817313D

 40 39  0  0  0  0  0  0  0  0999 V2000
    0.9101   -0.1007   -0.0518 N   0  0  0  0  0  0  0  0  0  0  0  0
    2.3686   -0.0972   -0.0611 C   0  0  0  0  0  0  0  0  0  0  0  0
    2.9125    0.8412    1.0152 C   0  0  0  0  0  0  0  0  0  0  0  0
    4.4423    0.8351    1.0097 C   0  0  0  0  0  0  0  0  0  0  0  0
    4.9531    1.7468    2.0343 N   0  0  0  0  0  0  0  0  0  0  0  0
    6.4158    1.7471    2.0505 C   0  0  0  0  0  0  0  0  0  0  0  0
    6.9192    2.6967    3.1376 C   0  0  0  0  0  0  0  0  0  0  0  0
    8.4486    2.7334    3.1687 C   0  0  0  0  0  0  0  0  0  0  0  0
    8.9520    3.6840    4.2548 C   0  0  0  0  0  0  0  0  0  0  0  0
   10.4154    3.6864    4.2692 N   0  0  0  0  0  0  0  0  0  0  0  0
   10.9253    4.5976    5.2945 C   0  0  0  0  0  0  0  0  0  0  0  0
   12.4552    4.5940    5.2870 C   0  0  0  0  0  0  0  0  0  0  0  0
   12.9989    5.5300    6.3656 C   0  0  0  0  0  0  0  0  0  0  0  0
   14.4574    5.5360    6.3545 N   0  0  0  0  0  0  0  0  0  0  0  0
    0.5679   -0.6800   -0.8173 H   0  0  0  0  0  0  0  0  0  0  0  0
    0.5647    0.8418   -0.2312 H   0  0  0  0  0  0  0  0  0  0  0  0
    2.7236    0.2149   -1.0495 H   0  0  0  0  0  0  0  0  0  0  0  0
    2.7267   -1.1175    0.1143 H   0  0  0  0  0  0  0  0  0  0  0  0
    2.5424    0.5294    2.0007 H   0  0  0  0  0  0  0  0  0  0  0  0
    2.5457    1.8611    0.8395 H   0  0  0  0  0  0  0  0  0  0  0  0
    4.8016    1.1488    0.0223 H   0  0  0  0  0  0  0  0  0  0  0  0
    4.8044   -0.1837    1.1952 H   0  0  0  0  0  0  0  0  0  0  0  0
    4.5993    1.4637    2.9488 H   0  0  0  0  0  0  0  0  0  0  0  0
    6.7991    2.0748    1.0770 H   0  0  0  0  0  0  0  0  0  0  0  0
    6.7947    0.7361    2.2430 H   0  0  0  0  0  0  0  0  0  0  0  0
    6.5413    2.3764    4.1169 H   0  0  0  0  0  0  0  0  0  0  0  0
    6.5327    3.7078    2.9566 H   0  0  0  0  0  0  0  0  0  0  0  0
    8.8264    3.0527    2.1891 H   0  0  0  0  0  0  0  0  0  0  0  0
    8.8351    1.7224    3.3507 H   0  0  0  0  0  0  0  0  0  0  0  0
    8.5701    3.3560    5.2290 H   0  0  0  0  0  0  0  0  0  0  0  0
    8.5716    4.6943    4.0625 H   0  0  0  0  0  0  0  0  0  0  0  0
   10.7674    3.9711    3.3551 H   0  0  0  0  0  0  0  0  0  0  0  0
   10.5677    4.2821    6.2821 H   0  0  0  0  0  0  0  0  0  0  0  0
   10.5614    5.6158    5.1109 H   0  0  0  0  0  0  0  0  0  0  0  0
   12.8234    4.9096    4.3021 H   0  0  0  0  0  0  0  0  0  0  0  0
   12.8239    3.5744    5.4591 H   0  0  0  0  0  0  0  0  0  0  0  0
   12.6458    5.2140    7.3534 H   0  0  0  0  0  0  0  0  0  0  0  0
   12.6389    6.5502    6.1940 H   0  0  0  0  0  0  0  0  0  0  0  0
   14.8048    4.5933    6.5295 H   0  0  0  0  0  0  0  0  0  0  0  0
   14.7995    6.1126    7.1222 H   0  0  0  0  0  0  0  0  0  0  0  0
  1  2  1  0  0  0  0
  1 15  1  0  0  0  0
  1 16  1  0  0  0  0
  2  3  1  0  0  0  0
  2 17  1  0  0  0  0
  2 18  1  0  0  0  0
  3  4  1  0  0  0  0
  3 19  1  0  0  0  0
  3 20  1  0  0  0  0
  4  5  1  0  0  0  0
  4 21  1  0  0  0  0
  4 22  1  0  0  0  0
  5  6  1  0  0  0  0
  5 23  1  0  0  0  0
  6  7  1  0  0  0  0
  6 24  1  0  0  0  0
  6 25  1  0  0  0  0
  7  8  1  0  0  0  0
  7 26  1  0  0  0  0
  7 27  1  0  0  0  0
  8  9  1  0  0  0  0
  8 28  1  0  0  0  0
  8 29  1  0  0  0  0
  9 10  1  0  0  0  0
  9 30  1  0  0  0  0
  9 31  1  0  0  0  0
 10 11  1  0  0  0  0
 10 32  1  0  0  0  0
 11 12  1  0  0  0  0
 11 33  1  0  0  0  0
 11 34  1  0  0  0  0
 12 13  1  0  0  0  0
 12 35  1  0  0  0  0
 12 36  1  0  0  0  0
 13 14  1  0  0  0  0
 13 37  1  0  0  0  0
 13 38  1  0  0  0  0
 14 39  1  0  0  0  0
 14 40  1  0  0  0  0
M  END
$$$$
