4YB0_C2E_R_102
  1228              3D

 70 76  0  0  0  0  0  0  0  0999 V2000
   -2.1228   -1.9472    2.4936 P   0  0  0  0  0  0  0  0  0  0  0  0
   -2.7161   -3.0107    3.3778 O   0  0  0  0  0  0  0  0  0  0  0  0
   -1.0984   -0.9644    3.2676 O   0  0  0  0  0  0  0  0  0  0  0  0
   -3.2532   -0.9637    1.8783 O   0  0  0  0  0  0  0  0  0  0  0  0
   -2.9742    0.2164    1.1304 C   0  0  0  0  0  0  0  0  0  0  0  0
   -3.8579    0.1873   -0.1122 C   0  0  0  0  0  0  0  0  0  0  0  0
   -4.1218   -0.8561   -0.3475 H   0  0  0  0  0  0  0  0  0  0  0  0
   -5.0868    0.9098    0.1120 O   0  0  0  0  0  0  0  0  0  0  0  0
   -5.6632    1.0269   -1.2014 C   0  0  0  0  0  0  0  0  0  0  0  0
   -6.1686    0.0712   -1.4049 H   0  0  0  0  0  0  0  0  0  0  0  0
   -4.4977    1.2089   -2.1757 C   0  0  0  0  0  0  0  0  0  0  0  0
   -4.4184    2.2109   -2.6041 H   0  0  0  0  0  0  0  0  0  0  0  0
   -3.2683    0.8796   -1.3349 C   0  0  0  0  0  0  0  0  0  0  0  0
   -2.7311    1.7887   -1.0419 H   0  0  0  0  0  0  0  0  0  0  0  0
   -2.4362   -0.0448   -1.9922 O   0  0  0  0  0  0  0  0  0  0  0  0
   -1.0328    0.3504   -2.6665 P   0  0  0  0  0  0  0  0  0  0  0  0
   -0.5936    1.7774   -2.5255 O   0  0  0  0  0  0  0  0  0  0  0  0
   -1.2153   -0.1473   -4.1941 O   0  0  0  0  0  0  0  0  0  0  0  0
   -0.0187   -0.7390   -2.0383 O   0  0  0  0  0  0  0  0  0  0  0  0
   -0.4122   -2.1012   -1.9018 C   0  0  0  0  0  0  0  0  0  0  0  0
    0.2130   -2.6929   -0.6466 C   0  0  0  0  0  0  0  0  0  0  0  0
   -0.0265   -3.7600   -0.5743 H   0  0  0  0  0  0  0  0  0  0  0  0
    1.6438   -2.5710   -0.7869 O   0  0  0  0  0  0  0  0  0  0  0  0
    2.1971   -1.9598    0.3893 C   0  0  0  0  0  0  0  0  0  0  0  0
    3.0685   -2.5555    0.6922 H   0  0  0  0  0  0  0  0  0  0  0  0
    1.1110   -2.0432    1.4529 C   0  0  0  0  0  0  0  0  0  0  0  0
    1.2124   -1.2904    2.2396 H   0  0  0  0  0  0  0  0  0  0  0  0
   -0.1681   -1.9509    0.6388 C   0  0  0  0  0  0  0  0  0  0  0  0
   -0.4150   -0.9214    0.4128 H   0  0  0  0  0  0  0  0  0  0  0  0
   -1.2948   -2.5676    1.2447 O   0  0  0  0  0  0  0  0  0  0  0  0
    1.2022   -3.3357    2.0587 O   0  0  0  0  0  0  0  0  0  0  0  0
    2.7133   -0.6564   -0.0282 N   0  0  0  0  0  0  0  0  0  0  0  0
    4.0595   -0.5111   -0.3480 C   0  0  0  0  0  0  0  0  0  0  0  0
    4.3931    0.7492   -0.5294 N   0  0  0  0  0  0  0  0  0  0  0  0
    3.3420    1.4334   -0.0029 C   0  0  0  0  0  0  0  0  0  0  0  0
    3.1607    2.8611    0.0300 C   0  0  0  0  0  0  0  0  0  0  0  0
    3.9725    3.6569   -0.4275 O   0  0  0  0  0  0  0  0  0  0  0  0
    1.8881    3.1990    0.5005 N   0  0  0  0  0  0  0  0  0  0  0  0
    1.7253    4.1750    0.7361 H   0  0  0  0  0  0  0  0  0  0  0  0
    0.9257    2.2578    0.9405 C   0  0  0  0  0  0  0  0  0  0  0  0
   -0.2244    2.7989    1.4718 N   0  0  0  0  0  0  0  0  0  0  0  0
    1.0254    0.9891    0.6123 N   0  0  0  0  0  0  0  0  0  0  0  0
    2.3089    0.5988    0.3785 C   0  0  0  0  0  0  0  0  0  0  0  0
   -4.6430    0.2994   -3.2633 O   0  0  0  0  0  0  0  0  0  0  0  0
   -6.6994    2.0391   -1.2241 N   0  0  0  0  0  0  0  0  0  0  0  0
   -8.0282    1.7449   -0.9789 C   0  0  0  0  0  0  0  0  0  0  0  0
   -8.7979    2.7900   -1.2008 N   0  0  0  0  0  0  0  0  0  0  0  0
   -7.9154    3.8276   -1.2151 C   0  0  0  0  0  0  0  0  0  0  0  0
   -8.2095    5.2182   -1.4309 C   0  0  0  0  0  0  0  0  0  0  0  0
   -9.3253    5.6383   -1.7123 O   0  0  0  0  0  0  0  0  0  0  0  0
   -7.0379    5.9806   -1.4487 N   0  0  0  0  0  0  0  0  0  0  0  0
   -7.1447    6.9906   -1.3939 H   0  0  0  0  0  0  0  0  0  0  0  0
   -5.7386    5.4571   -1.2278 C   0  0  0  0  0  0  0  0  0  0  0  0
   -4.7466    6.4112   -1.1517 N   0  0  0  0  0  0  0  0  0  0  0  0
   -5.4916    4.1693   -1.3370 N   0  0  0  0  0  0  0  0  0  0  0  0
   -6.5998    3.4070   -1.1249 C   0  0  0  0  0  0  0  0  0  0  0  0
   -0.4262   -1.3682    3.8589 H   0  0  0  0  0  0  0  0  0  0  0  0
   -1.9192    0.2566    0.8704 H   0  0  0  0  0  0  0  0  0  0  0  0
   -3.1974    1.0818    1.7633 H   0  0  0  0  0  0  0  0  0  0  0  0
   -0.4740   -0.6135   -4.6361 H   0  0  0  0  0  0  0  0  0  0  0  0
   -0.0741   -2.6399   -2.7913 H   0  0  0  0  0  0  0  0  0  0  0  0
   -1.4987   -2.1935   -1.8417 H   0  0  0  0  0  0  0  0  0  0  0  0
    0.4797   -3.4024    2.7060 H   0  0  0  0  0  0  0  0  0  0  0  0
    4.6470   -1.3581   -0.6800 H   0  0  0  0  0  0  0  0  0  0  0  0
   -0.9937    2.8665    0.8065 H   0  0  0  0  0  0  0  0  0  0  0  0
   -0.0944    3.7111    1.9062 H   0  0  0  0  0  0  0  0  0  0  0  0
   -5.5790    0.2844   -3.5265 H   0  0  0  0  0  0  0  0  0  0  0  0
   -8.3774    0.7274   -0.8678 H   0  0  0  0  0  0  0  0  0  0  0  0
   -4.7783    6.9797   -0.3072 H   0  0  0  0  0  0  0  0  0  0  0  0
   -3.8027    6.0500   -1.2735 H   0  0  0  0  0  0  0  0  0  0  0  0
  2  1  2  0  0  0  0
  3  1  1  0  0  0  0
  4  1  1  0  0  0  0
  5  4  1  0  0  0  0
  6  5  1  0  0  0  0
  6  7  1  0  0  0  0
  8  6  1  0  0  0  0
  9  8  1  0  0  0  0
  9 10  1  0  0  0  0
 11  9  1  0  0  0  0
 11 12  1  0  0  0  0
 13 11  1  0  0  0  0
 13 14  1  0  0  0  0
 13  6  1  0  0  0  0
 15 13  1  0  0  0  0
 16 15  1  0  0  0  0
 17 16  2  0  0  0  0
 18 16  1  0  0  0  0
 19 16  1  0  0  0  0
 20 19  1  0  0  0  0
 21 20  1  0  0  0  0
 21 22  1  0  0  0  0
 23 21  1  0  0  0  0
 24 23  1  0  0  0  0
 24 25  1  0  0  0  0
 26 24  1  0  0  0  0
 26 27  1  0  0  0  0
 28 26  1  0  0  0  0
 28 29  1  0  0  0  0
 28 21  1  0  0  0  0
 30 28  1  0  0  0  0
 30  1  1  0  0  0  0
 31 26  1  0  0  0  0
 32 24  1  0  0  0  0
 33 32  1  0  0  0  0
 34 33  2  0  0  0  0
 35 34  1  0  0  0  0
 36 35  1  0  0  0  0
 37 36  2  0  0  0  0
 38 36  1  0  0  0  0
 38 39  1  0  0  0  0
 40 38  1  0  0  0  0
 41 40  1  0  0  0  0
 42 40  2  0  0  0  0
 43 42  1  0  0  0  0
 43 32  1  0  0  0  0
 43 35  2  0  0  0  0
 44 11  1  0  0  0  0
 45  9  1  0  0  0  0
 46 45  1  0  0  0  0
 47 46  2  0  0  0  0
 48 47  1  0  0  0  0
 49 48  1  0  0  0  0
 50 49  2  0  0  0  0
 51 49  1  0  0  0  0
 51 52  1  0  0  0  0
 53 51  1  0  0  0  0
 54 53  1  0  0  0  0
 55 53  2  0  0  0  0
 56 55  1  0  0  0  0
 56 45  1  0  0  0  0
 56 48  2  0  0  0  0
  3 57  1  0  0  0  0
  5 58  1  0  0  0  0
  5 59  1  0  0  0  0
 18 60  1  0  0  0  0
 20 61  1  0  0  0  0
 20 62  1  0  0  0  0
 31 63  1  0  0  0  0
 33 64  1  0  0  0  0
 41 65  1  0  0  0  0
 41 66  1  0  0  0  0
 44 67  1  0  0  0  0
 46 68  1  0  0  0  0
 54 69  1  0  0  0  0
 54 70  1  0  0  0  0
M  END
>  <energy>
134.8192820356127

$$$$
