@<TRIPOS>MOLECULE
4YB0_C2E_R_102
 70 76 0 0 0
SMALL
GASTEIGER

@<TRIPOS>ATOM
      1 P          -2.1228   -1.9472    2.4936 P.3     1  UNL1        0.4754
      2 O          -2.7161   -3.0107    3.3778 O.2     1  UNL1       -0.2273
      3 O          -1.0984   -0.9644    3.2676 O.3     1  UNL1       -0.3025
      4 O          -3.2532   -0.9637    1.8783 O.3     1  UNL1       -0.2840
      5 C          -2.9742    0.2164    1.1304 C.3     1  UNL1        0.0879
      6 C          -3.8579    0.1873   -0.1122 C.3     1  UNL1        0.1142
      7 H          -4.1218   -0.8561   -0.3475 H       1  UNL1        0.0647
      8 O          -5.0868    0.9098    0.1120 O.3     1  UNL1       -0.3456
      9 C          -5.6632    1.0269   -1.2014 C.3     1  UNL1        0.1667
     10 H          -6.1686    0.0712   -1.4049 H       1  UNL1        0.0866
     11 C          -4.4977    1.2089   -2.1757 C.3     1  UNL1        0.1294
     12 H          -4.4184    2.2109   -2.6041 H       1  UNL1        0.0666
     13 C          -3.2683    0.8796   -1.3349 C.3     1  UNL1        0.1283
     14 H          -2.7311    1.7887   -1.0419 H       1  UNL1        0.0656
     15 O          -2.4362   -0.0448   -1.9922 O.3     1  UNL1       -0.2779
     16 P          -1.0328    0.3504   -2.6665 P.3     1  UNL1        0.4754
     17 O          -0.5936    1.7774   -2.5255 O.2     1  UNL1       -0.2273
     18 O          -1.2153   -0.1473   -4.1941 O.3     1  UNL1       -0.3025
     19 O          -0.0187   -0.7390   -2.0383 O.3     1  UNL1       -0.2840
     20 C          -0.4122   -2.1012   -1.9018 C.3     1  UNL1        0.0879
     21 C           0.2130   -2.6929   -0.6466 C.3     1  UNL1        0.1142
     22 H          -0.0265   -3.7600   -0.5743 H       1  UNL1        0.0647
     23 O           1.6438   -2.5710   -0.7869 O.3     1  UNL1       -0.3456
     24 C           2.1971   -1.9598    0.3893 C.3     1  UNL1        0.1667
     25 H           3.0685   -2.5555    0.6922 H       1  UNL1        0.0866
     26 C           1.1110   -2.0432    1.4529 C.3     1  UNL1        0.1294
     27 H           1.2124   -1.2904    2.2396 H       1  UNL1        0.0666
     28 C          -0.1681   -1.9509    0.6388 C.3     1  UNL1        0.1283
     29 H          -0.4150   -0.9214    0.4128 H       1  UNL1        0.0656
     30 O          -1.2948   -2.5676    1.2447 O.3     1  UNL1       -0.2779
     31 O           1.2022   -3.3357    2.0587 O.3     1  UNL1       -0.3846
     32 N           2.7133   -0.6564   -0.0282 N.ar    1  UNL1       -0.2854
     33 C           4.0595   -0.5111   -0.3480 C.ar    1  UNL1        0.1005
     34 N           4.3931    0.7492   -0.5294 N.ar    1  UNL1       -0.2286
     35 C           3.3420    1.4334   -0.0029 C.ar    1  UNL1        0.1721
     36 C           3.1607    2.8611    0.0300 C.ar    1  UNL1        0.2803
     37 O           3.9725    3.6569   -0.4275 O.2     1  UNL1       -0.2654
     38 N           1.8881    3.1990    0.5005 N.ar    1  UNL1       -0.2934
     39 H           1.7253    4.1750    0.7361 H       1  UNL1        0.1716
     40 C           0.9257    2.2578    0.9405 C.ar    1  UNL1        0.1950
     41 N          -0.2244    2.7989    1.4718 N.pl3   1  UNL1       -0.3289
     42 N           1.0254    0.9891    0.6123 N.ar    1  UNL1       -0.1963
     43 C           2.3089    0.5988    0.3785 C.ar    1  UNL1        0.1712
     44 O          -4.6430    0.2994   -3.2633 O.3     1  UNL1       -0.3846
     45 N          -6.6994    2.0391   -1.2241 N.ar    1  UNL1       -0.2854
     46 C          -8.0282    1.7449   -0.9789 C.ar    1  UNL1        0.1005
     47 N          -8.7979    2.7900   -1.2008 N.ar    1  UNL1       -0.2286
     48 C          -7.9154    3.8276   -1.2151 C.ar    1  UNL1        0.1721
     49 C          -8.2095    5.2182   -1.4309 C.ar    1  UNL1        0.2803
     50 O          -9.3253    5.6383   -1.7123 O.2     1  UNL1       -0.2654
     51 N          -7.0379    5.9806   -1.4487 N.ar    1  UNL1       -0.2934
     52 H          -7.1447    6.9906   -1.3939 H       1  UNL1        0.1716
     53 C          -5.7386    5.4571   -1.2278 C.ar    1  UNL1        0.1950
     54 N          -4.7466    6.4112   -1.1517 N.pl3   1  UNL1       -0.3289
     55 N          -5.4916    4.1693   -1.3370 N.ar    1  UNL1       -0.1963
     56 C          -6.5998    3.4070   -1.1249 C.ar    1  UNL1        0.1712
     57 H          -0.4262   -1.3682    3.8589 H       1  UNL1        0.2220
     58 H          -1.9192    0.2566    0.8704 H       1  UNL1        0.0592
     59 H          -3.1974    1.0818    1.7633 H       1  UNL1        0.0592
     60 H          -0.4740   -0.6135   -4.6361 H       1  UNL1        0.2220
     61 H          -0.0741   -2.6399   -2.7913 H       1  UNL1        0.0592
     62 H          -1.4987   -2.1935   -1.8417 H       1  UNL1        0.0592
     63 H           0.4797   -3.4024    2.7060 H       1  UNL1        0.2101
     64 H           4.6470   -1.3581   -0.6800 H       1  UNL1        0.1030
     65 H          -0.9937    2.8665    0.8065 H       1  UNL1        0.1451
     66 H          -0.0944    3.7111    1.9062 H       1  UNL1        0.1451
     67 H          -5.5790    0.2844   -3.5265 H       1  UNL1        0.2101
     68 H          -8.3774    0.7274   -0.8678 H       1  UNL1        0.1030
     69 H          -4.7783    6.9797   -0.3072 H       1  UNL1        0.1451
     70 H          -3.8027    6.0500   -1.2735 H       1  UNL1        0.1451
@<TRIPOS>BOND
     1     2     1    2
     2     3     1    1
     3     4     1    1
     4     5     4    1
     5     6     5    1
     6     6     7    1
     7     8     6    1
     8     9     8    1
     9     9    10    1
    10    11     9    1
    11    11    12    1
    12    13    11    1
    13    13    14    1
    14    13     6    1
    15    15    13    1
    16    16    15    1
    17    17    16    2
    18    18    16    1
    19    19    16    1
    20    20    19    1
    21    21    20    1
    22    21    22    1
    23    23    21    1
    24    24    23    1
    25    24    25    1
    26    26    24    1
    27    26    27    1
    28    28    26    1
    29    28    29    1
    30    28    21    1
    31    30    28    1
    32    30     1    1
    33    31    26    1
    34    32    24    1
    35    33    32   ar
    36    34    33   ar
    37    35    34   ar
    38    36    35   ar
    39    37    36    2
    40    38    36   ar
    41    38    39    1
    42    40    38   ar
    43    41    40    1
    44    42    40   ar
    45    43    42   ar
    46    43    32   ar
    47    43    35   ar
    48    44    11    1
    49    45     9    1
    50    46    45   ar
    51    47    46   ar
    52    48    47   ar
    53    49    48   ar
    54    50    49    2
    55    51    49   ar
    56    51    52    1
    57    53    51   ar
    58    54    53    1
    59    55    53   ar
    60    56    55   ar
    61    56    45   ar
    62    56    48   ar
    63     3    57    1
    64     5    58    1
    65     5    59    1
    66    18    60    1
    67    20    61    1
    68    20    62    1
    69    31    63    1
    70    33    64    1
    71    41    65    1
    72    41    66    1
    73    44    67    1
    74    46    68    1
    75    54    69    1
    76    54    70    1
