REMARK  8 active torsions:
REMARK  status: ('A' for Active; 'I' for Inactive)
REMARK    1  A    between atoms: O_3  and  P_1 
REMARK    2  A    between atoms: N_37  and  C_8 
REMARK    3  A    between atoms: O_36  and  C_9 
REMARK    4  A    between atoms: O_14  and  P_12 
REMARK    5  A    between atoms: N_24  and  C_19 
REMARK    6  A    between atoms: O_23  and  C_20 
REMARK    7  A    between atoms: N_33  and  C_32 
REMARK    8  A    between atoms: N_46  and  C_45 
ROOT
ATOM      1  P   UNL d   1      -2.123  -1.947   2.494  0.00  0.00     0.393 P 
ATOM      2  O   UNL d   1      -2.716  -3.011   3.378  0.00  0.00    -0.631 OA
ATOM      3  O   UNL d   1      -3.253  -0.964   1.878  0.00  0.00    -0.294 OA
ATOM      4  C   UNL d   1      -2.974   0.216   1.130  0.00  0.00     0.215 C 
ATOM      5  C   UNL d   1      -3.858   0.187  -0.112  0.00  0.00     0.180 C 
ATOM      6  O   UNL d   1      -5.087   0.910   0.112  0.00  0.00    -0.353 OA
ATOM      7  C   UNL d   1      -5.663   1.027  -1.201  0.00  0.00     0.262 C 
ATOM      8  C   UNL d   1      -4.498   1.209  -2.176  0.00  0.00     0.199 C 
ATOM      9  C   UNL d   1      -3.268   0.880  -1.335  0.00  0.00     0.197 C 
ATOM     10  O   UNL d   1      -2.436  -0.045  -1.992  0.00  0.00    -0.286 OA
ATOM     11  P   UNL d   1      -1.033   0.350  -2.667  0.00  0.00     0.393 P 
ATOM     12  O   UNL d   1      -0.594   1.777  -2.526  0.00  0.00    -0.631 OA
ATOM     13  O   UNL d   1      -0.019  -0.739  -2.038  0.00  0.00    -0.294 OA
ATOM     14  C   UNL d   1      -0.412  -2.101  -1.902  0.00  0.00     0.215 C 
ATOM     15  C   UNL d   1       0.213  -2.693  -0.647  0.00  0.00     0.180 C 
ATOM     16  O   UNL d   1       1.644  -2.571  -0.787  0.00  0.00    -0.353 OA
ATOM     17  C   UNL d   1       2.197  -1.960   0.389  0.00  0.00     0.262 C 
ATOM     18  C   UNL d   1       1.111  -2.043   1.453  0.00  0.00     0.199 C 
ATOM     19  C   UNL d   1      -0.168  -1.951   0.639  0.00  0.00     0.197 C 
ATOM     20  O   UNL d   1      -1.295  -2.568   1.245  0.00  0.00    -0.286 OA
ENDROOT
BRANCH   7  21
ATOM     21  N   UNL d   1      -6.699   2.039  -1.224  0.00  0.00    -0.294 N 
ATOM     22  C   UNL d   1      -8.028   1.745  -0.979  0.00  0.00     0.214 C 
ATOM     23  N   UNL d   1      -8.798   2.790  -1.201  0.00  0.00    -0.234 NA
ATOM     24  C   UNL d   1      -7.915   3.828  -1.215  0.00  0.00     0.172 C 
ATOM     25  C   UNL d   1      -8.210   5.218  -1.431  0.00  0.00     0.280 C 
ATOM     26  C   UNL d   1      -6.600   3.407  -1.125  0.00  0.00     0.171 C 
ATOM     27  O   UNL d   1      -9.325   5.638  -1.712  0.00  0.00    -0.265 OA
ATOM     28  N   UNL d   1      -7.038   5.981  -1.449  0.00  0.00    -0.296 N 
ATOM     29  H   UNL d   1      -7.145   6.991  -1.394  0.00  0.00     0.171 HD
ATOM     30  C   UNL d   1      -5.739   5.457  -1.228  0.00  0.00     0.181 C 
ATOM     31  N   UNL d   1      -5.492   4.169  -1.337  0.00  0.00    -0.200 NA
BRANCH  30  32
ATOM     32  N   UNL d   1      -4.747   6.411  -1.152  0.00  0.00    -0.272 NA
ATOM     33  H   UNL d   1      -4.778   6.980  -0.307  0.00  0.00     0.127 HD
ATOM     34  H   UNL d   1      -3.803   6.050  -1.274  0.00  0.00     0.127 HD
ENDBRANCH  30  32
ENDBRANCH   7  21
BRANCH   8  35
ATOM     35  O   UNL d   1      -4.643   0.299  -3.263  0.00  0.00    -0.388 OA
ATOM     36  H   UNL d   1      -5.579   0.284  -3.526  0.00  0.00     0.210 HD
ENDBRANCH   8  35
BRANCH  11  37
ATOM     37  O   UNL d   1      -1.215  -0.147  -4.194  0.00  0.00    -0.307 OA
ATOM     38  H   UNL d   1      -0.474  -0.614  -4.636  0.00  0.00     0.222 HD
ENDBRANCH  11  37
BRANCH   1  39
ATOM     39  O   UNL d   1      -1.098  -0.964   3.268  0.00  0.00    -0.307 OA
ATOM     40  H   UNL d   1      -0.426  -1.368   3.859  0.00  0.00     0.222 HD
ENDBRANCH   1  39
BRANCH  18  41
ATOM     41  O   UNL d   1       1.202  -3.336   2.059  0.00  0.00    -0.388 OA
ATOM     42  H   UNL d   1       0.480  -3.402   2.706  0.00  0.00     0.210 HD
ENDBRANCH  18  41
BRANCH  17  43
ATOM     43  N   UNL d   1       2.713  -0.656  -0.028  0.00  0.00    -0.294 N 
ATOM     44  C   UNL d   1       4.059  -0.511  -0.348  0.00  0.00     0.214 C 
ATOM     45  N   UNL d   1       4.393   0.749  -0.529  0.00  0.00    -0.234 NA
ATOM     46  C   UNL d   1       3.342   1.433  -0.003  0.00  0.00     0.172 C 
ATOM     47  C   UNL d   1       3.161   2.861   0.030  0.00  0.00     0.280 C 
ATOM     48  C   UNL d   1       2.309   0.599   0.379  0.00  0.00     0.171 C 
ATOM     49  O   UNL d   1       3.973   3.657  -0.427  0.00  0.00    -0.265 OA
ATOM     50  N   UNL d   1       1.888   3.199   0.500  0.00  0.00    -0.296 N 
ATOM     51  H   UNL d   1       1.725   4.175   0.736  0.00  0.00     0.171 HD
ATOM     52  C   UNL d   1       0.926   2.258   0.941  0.00  0.00     0.181 C 
ATOM     53  N   UNL d   1       1.025   0.989   0.612  0.00  0.00    -0.200 NA
BRANCH  52  54
ATOM     54  N   UNL d   1      -0.224   2.799   1.472  0.00  0.00    -0.272 NA
ATOM     55  H   UNL d   1      -0.994   2.866   0.806  0.00  0.00     0.127 HD
ATOM     56  H   UNL d   1      -0.094   3.711   1.906  0.00  0.00     0.127 HD
ENDBRANCH  52  54
ENDBRANCH  17  43
TORSDOF 8
