2MIY_PRF_A_101
 OpenBabel10091713583D
Coordinates from PDB:2MIY:A:101 Model:1 without hydrogens
 22 23  0  0  0  0  0  0  0  0999 V2000
  -11.1480    3.9530   -6.6110 N   0  0  0  0  0  0  0  0  0  0  0  0
  -11.3310    3.5120   -7.8910 C   0  0  0  0  0  0  0  0  0  0  0  0
  -10.2990    3.3870   -8.7060 N   0  0  0  0  0  0  0  0  0  0  0  0
   -9.0230    3.6890   -8.3160 C   0  0  0  0  0  0  0  0  0  0  0  0
   -8.7770    4.1560   -7.0020 C   0  0  0  0  0  0  0  0  0  0  0  0
   -9.8980    4.2870   -6.1280 C   0  0  0  0  0  0  0  0  0  0  0  0
   -9.7560    4.6850   -4.9850 O   0  0  0  0  0  0  0  0  0  0  0  0
   -7.3320    4.3950   -6.9080 C   0  0  0  0  0  0  0  0  0  0  0  0
   -6.5610    4.9160   -5.7240 C   0  0  0  0  0  0  0  0  0  0  0  0
   -7.2820    6.0480   -5.1270 N   0  0  0  0  0  0  0  0  0  0  0  0
   -6.8230    4.0600   -8.1000 C   0  0  0  0  0  0  0  0  0  0  0  0
   -7.8180    3.6460   -8.9450 N   0  0  0  0  0  0  0  0  0  0  0  0
  -12.5920    3.1990   -8.3290 N   0  0  0  0  0  0  0  0  0  0  0  0
  -11.9285    4.0349   -6.0166 H   0  0  0  0  0  0  0  0  0  0  0  0
   -5.5925    5.2393   -6.0438 H   0  0  0  0  0  0  0  0  0  0  0  0
   -6.4564    4.1377   -4.9972 H   0  0  0  0  0  0  0  0  0  0  0  0
   -7.3821    6.7905   -5.8192 H   0  0  0  0  0  0  0  0  0  0  0  0
   -6.7590    6.3993   -4.3249 H   0  0  0  0  0  0  0  0  0  0  0  0
   -5.8222    4.1071   -8.3472 H   0  0  0  0  0  0  0  0  0  0  0  0
   -7.6804    3.3579   -9.8763 H   0  0  0  0  0  0  0  0  0  0  0  0
  -13.3613    3.2921   -7.7217 H   0  0  0  0  0  0  0  0  0  0  0  0
  -12.7282    2.8812   -9.2508 H   0  0  0  0  0  0  0  0  0  0  0  0
  1  2  1  0  0  0  0
  1  6  1  0  0  0  0
  1 14  1  0  0  0  0
  2  3  2  0  0  0  0
  2 13  1  0  0  0  0
  3  4  1  0  0  0  0
  4  5  2  0  0  0  0
  4 12  1  0  0  0  0
  5  6  1  0  0  0  0
  5  8  1  0  0  0  0
  6  7  2  0  0  0  0
  8  9  1  0  0  0  0
  8 11  2  0  0  0  0
  9 10  1  0  0  0  0
  9 15  1  0  0  0  0
  9 16  1  0  0  0  0
 10 17  1  0  0  0  0
 10 18  1  0  0  0  0
 11 12  1  0  0  0  0
 11 19  1  0  0  0  0
 12 20  1  0  0  0  0
 13 21  1  0  0  0  0
 13 22  1  0  0  0  0
A    1
N1
A    2
C2
A    3
N3
A    4
C4
A    5
C5
A    6
C6
A    7
O6
A    8
C7
A    9
C10
A   10
N11
A   11
C8
A   12
N9
A   13
N2
M  END
>  <InstanceId>
2MIY_PRF_A_101

>  <ChemCompId>
PRF

>  <PdbId>
2MIY

>  <ChainId>
A

>  <ResidueNumber>
101

>  <InsertionCode>


>  <Model>
1

>  <AltIds>


>  <MissingHeavyAtoms>
0

>  <ObservedFormula>
C7 N5 O

>  <Name>
7-DEAZA-7-AMINOMETHYL-GUANINE

>  <SystematicName>
2-amino-5-(aminomethyl)-3,7-dihydropyrrolo[3,2-e]pyrimidin-4-one

>  <Synonyms>


>  <Type>
NON-POLYMER

>  <Formula>
C7 H9 N5 O

>  <MolecularWeight>
179.179

>  <ModifiedDate>
2011-06-04

>  <Parent>


>  <OneLetterCode>


>  <SubcomponentList>


>  <AmbiguousFlag>
N

>  <InChI>
InChI=1S/C7H9N5O/c8-1-3-2-10-5-4(3)6(13)12-7(9)11-5/h2H,1,8H2,(H4,9,10,11,12,13)

>  <InChIKey>
MEYMBLGOKYDGLZ-UHFFFAOYSA-N

>  <SMILES>
c1c(c2c([nH]1)N=C(NC2=O)N)CN

$$$$
