REMARK  1 active torsions:
REMARK  status: ('A' for Active; 'I' for Inactive)
REMARK    1  A    between atoms: C_8  and  C_9 
ROOT
ATOM      1  N   UNL d   1     -11.148   3.953  -6.611  0.00  0.00    -0.017 NA
ATOM      2  C   UNL d   1     -11.331   3.512  -7.891  0.00  0.00     0.772 A 
ATOM      3  N   UNL d   1     -10.299   3.387  -8.706  0.00  0.00    -0.038 NA
ATOM      4  C   UNL d   1      -9.023   3.689  -8.316  0.00  0.00     0.185 A 
ATOM      5  C   UNL d   1      -8.777   4.156  -7.002  0.00  0.00     0.094 A 
ATOM      6  C   UNL d   1      -9.898   4.287  -6.128  0.00  0.00     0.298 A 
ATOM      7  O   UNL d   1      -9.756   4.685  -4.985  0.00  0.00    -0.265 OA
ATOM      8  C   UNL d   1      -7.332   4.395  -6.908  0.00  0.00     0.043 A 
ATOM      9  C   UNL d   1      -6.823   4.060  -8.100  0.00  0.00     0.099 A 
ATOM     10  N   UNL d   1      -7.818   3.646  -8.945  0.00  0.00    -0.225 NA
ATOM     11  N   UNL d   1     -12.592   3.199  -8.329  0.00  0.00     0.062 N 
ENDROOT
BRANCH   8  12
ATOM     12  C   UNL d   1      -6.561   4.916  -5.724  0.00  0.00     0.367 C 
ATOM     13  N   UNL d   1      -7.282   6.048  -5.127  0.00  0.00     0.623 N 
ENDBRANCH   8  12
TORSDOF 1
