@<TRIPOS>MOLECULE
2MIY_PRF_A_101
 13 14 0 0 0
SMALL
GASTEIGER
****
Coordinates from PDB:2MIY:A:101 Model:1 without hydrogens
@<TRIPOS>ATOM
      1 N         -11.1480    3.9530   -6.6110 N.ar    1  UNL1       -0.1723
      2 C         -11.3310    3.5120   -7.8910 C.ar    1  UNL1        0.2606
      3 N         -10.2990    3.3870   -8.7060 N.ar    1  UNL1       -0.1918
      4 C          -9.0230    3.6890   -8.3160 C.ar    1  UNL1        0.1697
      5 C          -8.7770    4.1560   -7.0020 C.ar    1  UNL1        0.0927
      6 C          -9.8980    4.2870   -6.1280 C.ar    1  UNL1        0.2843
      7 O          -9.7560    4.6850   -4.9850 O.2     1  UNL1       -0.2650
      8 C          -7.3320    4.3950   -6.9080 C.ar    1  UNL1        0.0236
      9 C          -6.5610    4.9160   -5.7240 C.3     1  UNL1        0.1374
     10 N          -7.2820    6.0480   -5.1270 N.3     1  UNL1       -0.1262
     11 C          -6.8230    4.0600   -8.1000 C.ar    1  UNL1        0.0980
     12 N          -7.8180    3.6460   -8.9450 N.ar    1  UNL1       -0.2251
     13 N         -12.5920    3.1990   -8.3290 N.pl3   1  UNL1       -0.0859
@<TRIPOS>BOND
     1     1     2   ar
     2     1     6   ar
     3     2     3   ar
     4     2    13    1
     5     3     4   ar
     6     4     5   ar
     7     4    12   ar
     8     5     6   ar
     9     5     8   ar
    10     6     7    2
    11     8     9    1
    12     8    11   ar
    13     9    10    1
    14    11    12   ar
