ligand.pdb
 OpenBabel03221817293D

 22 21  0  0  1  0  0  0  0  0999 V2000
    0.9367   -0.1572    0.1008 N   0  0  0  0  0  0  0  0  0  0  0  0
    2.4223    0.0489    0.1088 C   0  0  1  0  0  0  0  0  0  0  0  0
    2.8159   -0.3144   -0.8486 H   0  0  0  0  0  0  0  0  0  0  0  0
    2.8381    1.5101    0.3350 C   0  0  0  0  0  0  0  0  0  0  0  0
    2.1404    2.5764   -0.9815 S   0  0  0  0  0  0  0  0  0  0  0  0
    2.8830    4.1689   -0.4884 C   0  0  0  0  0  0  0  0  0  0  0  0
    2.5030    5.2548   -1.5021 C   0  0  0  0  0  0  0  0  0  0  0  0
    3.0281    6.5630   -1.1074 N   0  0  0  0  0  0  0  0  0  0  0  0
    3.0147   -0.8581    1.1938 C   0  0  0  0  0  0  0  0  0  0  0  0
    4.0744   -0.6784    1.7736 O   0  0  0  0  0  0  0  0  0  0  0  0
    2.2144   -1.9348    1.4129 O   0  0  0  0  0  0  0  0  0  0  0  0
    0.5726    0.4661   -0.6327 H   0  0  0  0  0  0  0  0  0  0  0  0
    0.5567    0.2554    0.9601 H   0  0  0  0  0  0  0  0  0  0  0  0
    3.9298    1.5978    0.3201 H   0  0  0  0  0  0  0  0  0  0  0  0
    2.4824    1.8667    1.3064 H   0  0  0  0  0  0  0  0  0  0  0  0
    3.9724    4.0614   -0.4418 H   0  0  0  0  0  0  0  0  0  0  0  0
    2.5136    4.4312    0.5084 H   0  0  0  0  0  0  0  0  0  0  0  0
    1.4135    5.3310   -1.5962 H   0  0  0  0  0  0  0  0  0  0  0  0
    2.9071    5.0046   -2.4901 H   0  0  0  0  0  0  0  0  0  0  0  0
    2.5701    6.8725   -0.2507 H   0  0  0  0  0  0  0  0  0  0  0  0
    2.7771    7.2490   -1.8206 H   0  0  0  0  0  0  0  0  0  0  0  0
    1.4174   -1.8095    0.8365 H   0  0  0  0  0  0  0  0  0  0  0  0
  1  2  1  0  0  0  0
  1 12  1  0  0  0  0
  1 13  1  0  0  0  0
  2  3  1  6  0  0  0
  2  4  1  0  0  0  0
  2  9  1  0  0  0  0
  4  5  1  0  0  0  0
  4 14  1  0  0  0  0
  4 15  1  0  0  0  0
  5  6  1  0  0  0  0
  6  7  1  0  0  0  0
  6 16  1  0  0  0  0
  6 17  1  0  0  0  0
  7  8  1  0  0  0  0
  7 18  1  0  0  0  0
  7 19  1  0  0  0  0
  8 20  1  0  0  0  0
  8 21  1  0  0  0  0
  9 10  2  0  0  0  0
  9 11  1  0  0  0  0
 11 22  1  0  0  0  0
M  END
$$$$
