REMARK  8 active torsions:
REMARK  status: ('A' for Active; 'I' for Inactive)
REMARK    1  A    between atoms: N1_1  and  C1_2 
REMARK    2  A    between atoms: C1_2  and  C2_3 
REMARK    3  A    between atoms: C1_2  and  C5_8 
REMARK    4  A    between atoms: C2_3  and  S1_4 
REMARK    5  A    between atoms: S1_4  and  C3_5 
REMARK    6  A    between atoms: C3_5  and  C4_6 
REMARK    7  A    between atoms: C4_6  and  N2_7 
REMARK    8  A    between atoms: C5_8  and  O2_10 
ROOT
ATOM      1  C1  <1> d           2.422   0.049   0.109  0.00  0.00     0.323 C 
ENDROOT
BRANCH   1   2
ATOM      2  N1  <1> d           0.937  -0.157   0.101  0.00  0.00     0.093 N 
ATOM      3  H2  <1> d           0.573   0.466  -0.633  0.00  0.00     0.314 HD
ATOM      4  H3  <1> d           0.557   0.255   0.960  0.00  0.00     0.314 HD
ENDBRANCH   1   2
BRANCH   1   5
ATOM      5  C2  <1> d           2.838   1.510   0.335  0.00  0.00     0.120 C 
BRANCH   5   6
ATOM      6  S1  <1> d           2.140   2.576  -0.982  0.00  0.00    -0.165 SA
BRANCH   6   7
ATOM      7  C3  <1> d           2.883   4.169  -0.488  0.00  0.00     0.103 C 
BRANCH   7   8
ATOM      8  C4  <1> d           2.503   5.255  -1.502  0.00  0.00     0.276 C 
BRANCH   8   9
ATOM      9  N2  <1> d           3.028   6.563  -1.107  0.00  0.00     0.079 N 
ATOM     10  H10 <1> d           2.570   6.872  -0.251  0.00  0.00     0.312 HD
ATOM     11  H11 <1> d           2.777   7.249  -1.821  0.00  0.00     0.312 HD
ENDBRANCH   8   9
ENDBRANCH   7   8
ENDBRANCH   6   7
ENDBRANCH   5   6
ENDBRANCH   1   5
BRANCH   1  12
ATOM     12  C5  <1> d           3.015  -0.858   1.194  0.00  0.00     0.174 C 
ATOM     13  O1  <1> d           4.074  -0.678   1.774  0.00  0.00    -0.648 OA
BRANCH  12  14
ATOM     14  O2  <1> d           2.214  -1.935   1.413  0.00  0.00    -0.775 OA
ATOM     15  H12 <1> d           1.417  -1.810   0.837  0.00  0.00     0.167 HD
ENDBRANCH  12  14
ENDBRANCH   1  12
TORSDOF 8
