@<TRIPOS>MOLECULE
ligand.pdb
 22 21 0 0 0
SMALL
GASTEIGER

@<TRIPOS>ATOM
      1 N1          0.9367   -0.1572    0.1008 N.3     1  <1>        -0.3178
      2 C1          2.4223    0.0489    0.1088 C.3     1  <1>         0.1123
      3 H1          2.8159   -0.3144   -0.8486 H       1  <1>         0.0582
      4 C2          2.8381    1.5101    0.3350 C.3     1  <1>         0.0193
      5 S1          2.1404    2.5764   -0.9815 S.3     1  <1>        -0.1574
      6 C3          2.8830    4.1689   -0.4884 C.3     1  <1>         0.0061
      7 C4          2.5030    5.2548   -1.5021 C.3     1  <1>         0.0021
      8 N2          3.0281    6.5630   -1.1074 N.3     1  <1>        -0.3292
      9 C5          3.0147   -0.8581    1.1938 C.2     1  <1>         0.3225
     10 O1          4.0744   -0.6784    1.7736 O.2     1  <1>        -0.2492
     11 O2          2.2144   -1.9348    1.4129 O.3     1  <1>        -0.4795
     12 H2          0.5726    0.4661   -0.6327 H       1  <1>         0.1190
     13 H3          0.5567    0.2554    0.9601 H       1  <1>         0.1190
     14 H4          3.9298    1.5978    0.3201 H       1  <1>         0.0397
     15 H5          2.4824    1.8667    1.3064 H       1  <1>         0.0397
     16 H6          3.9724    4.0614   -0.4418 H       1  <1>         0.0389
     17 H7          2.5136    4.4312    0.5084 H       1  <1>         0.0389
     18 H8          1.4135    5.3310   -1.5962 H       1  <1>         0.0430
     19 H9          2.9071    5.0046   -2.4901 H       1  <1>         0.0430
     20 H10         2.5701    6.8725   -0.2507 H       1  <1>         0.1182
     21 H11         2.7771    7.2490   -1.8206 H       1  <1>         0.1182
     22 H12         1.4174   -1.8095    0.8365 H       1  <1>         0.2951
@<TRIPOS>BOND
     1     1     2    1
     2     1    12    1
     3     1    13    1
     4     2     3    1
     5     2     4    1
     6     2     9    1
     7     4     5    1
     8     4    14    1
     9     4    15    1
    10     5     6    1
    11     6     7    1
    12     6    16    1
    13     6    17    1
    14     7     8    1
    15     7    18    1
    16     7    19    1
    17     8    20    1
    18     8    21    1
    19     9    10    2
    20     9    11    1
    21    11    22    1
