REMARK  16 active torsions:
REMARK  status: ('A' for Active; 'I' for Inactive)
REMARK    1  A    between atoms: O_27  and  C_1 
REMARK    2  A    between atoms: N_26  and  C_2 
REMARK    3  A    between atoms: O_24  and  C_6 
REMARK    4  A    between atoms: N_22  and  C_7 
REMARK    5  A    between atoms: O_10  and  C_8 
REMARK    6  A    between atoms: C_11  and  O_10 
REMARK    7  A    between atoms: O_21  and  C_12 
REMARK    8  A    between atoms: O_20  and  C_13 
REMARK    9  A    between atoms: N_19  and  C_14 
REMARK   10  A    between atoms: C_16  and  C_15 
REMARK   11  A    between atoms: O_17  and  C_16 
REMARK   12  A    between atoms: C_28  and  O_27 
REMARK   13  A    between atoms: O_37  and  C_29 
REMARK   14  A    between atoms: O_36  and  C_30 
REMARK   15  A    between atoms: N_35  and  C_31 
REMARK   16  A    between atoms: N_34  and  C_33 
ROOT
ATOM      1  C   UNL d   1       2.579  -0.655  -1.394  0.00  0.00     0.293 C 
ATOM      2  C   UNL d   1       1.779  -0.779  -0.037  0.00  0.00     0.275 C 
ATOM      3  C   UNL d   1       1.112   0.488   0.535  0.00  0.00     0.075 C 
ATOM      4  C   UNL d   1       0.982   1.699  -0.389  0.00  0.00     0.158 C 
ATOM      5  C   UNL d   1       1.509   1.433  -1.783  0.00  0.00     0.184 C 
ATOM      6  C   UNL d   1       1.508   2.751  -2.569  0.00  0.00     0.187 C 
ATOM      7  C   UNL d   1       0.101   3.414  -2.522  0.00  0.00     0.305 C 
ATOM      8  C   UNL d   1      -0.698   3.216  -1.171  0.00  0.00     0.299 C 
ATOM      9  O   UNL d   1      -0.403   1.964  -0.545  0.00  0.00    -0.351 OA
ATOM     10  O   UNL d   1       2.768   0.769  -1.708  0.00  0.00    -0.349 OA
ENDROOT
BRANCH   1  11
ATOM     11  O   UNL d   1       2.022  -1.411  -2.499  0.00  0.00    -0.349 OA
BRANCH  11  12
ATOM     12  C   UNL d   1       2.527  -2.748  -2.874  0.00  0.00     0.189 C 
ATOM     13  C   UNL d   1       4.045  -3.005  -2.743  0.00  0.00     0.180 C 
ATOM     14  C   UNL d   1       4.461  -4.513  -2.808  0.00  0.00     0.182 C 
ATOM     15  C   UNL d   1       3.807  -5.251  -1.611  0.00  0.00     0.251 C 
ATOM     16  C   UNL d   1       2.466  -4.679  -1.162  0.00  0.00     0.076 C 
ATOM     17  C   UNL d   1       1.700  -3.775  -2.109  0.00  0.00     0.251 C 
BRANCH  13  18
ATOM     18  O   UNL d   1       4.724  -2.221  -3.723  0.00  0.00    -0.390 OA
ATOM     19  H   UNL d   1       5.620  -2.566  -3.835  0.00  0.00     0.210 HD
ENDBRANCH  13  18
BRANCH  14  20
ATOM     20  O   UNL d   1       5.902  -4.566  -2.564  0.00  0.00    -0.391 OA
ATOM     21  H   UNL d   1       6.342  -4.540  -3.437  0.00  0.00     0.210 HD
ENDBRANCH  14  20
BRANCH  15  22
ATOM     22  N   UNL d   1       3.580  -6.681  -1.799  0.00  0.00     0.085 N 
ATOM     23  H   UNL d   1       3.247  -7.096  -0.934  0.00  0.00     0.313 HD
ATOM     24  H   UNL d   1       4.407  -7.175  -2.079  0.00  0.00     0.313 HD
ENDBRANCH  15  22
BRANCH  17  25
ATOM     25  N   UNL d   1       0.586  -4.356  -2.869  0.00  0.00     0.085 N 
ATOM     26  H   UNL d   1       0.030  -4.900  -2.221  0.00  0.00     0.313 HD
ATOM     27  H   UNL d   1      -0.022  -3.541  -3.057  0.00  0.00     0.313 HD
ENDBRANCH  17  25
ENDBRANCH  11  12
ENDBRANCH   1  11
BRANCH   2  28
ATOM     28  N   UNL d   1       0.777  -1.835   0.052  0.00  0.00     0.087 N 
ATOM     29  H   UNL d   1       0.769  -2.218   0.984  0.00  0.00     0.313 HD
ATOM     30  H   UNL d   1      -0.169  -1.527  -0.164  0.00  0.00     0.313 HD
ENDBRANCH   2  28
BRANCH   6  31
ATOM     31  O   UNL d   1       2.454   3.694  -2.085  0.00  0.00    -0.391 OA
ATOM     32  H   UNL d   1       2.961   3.301  -1.377  0.00  0.00     0.210 HD
ENDBRANCH   6  31
BRANCH   7  33
ATOM     33  N   UNL d   1       0.123   4.835  -2.949  0.00  0.00     0.091 N 
ATOM     34  C   UNL d   1      -1.212   5.313  -3.317  0.00  0.00     0.307 C 
ATOM     35  H   UNL d   1       0.721   4.926  -3.774  0.00  0.00     0.316 HD
ENDBRANCH   7  33
BRANCH   8  36
ATOM     36  O   UNL d   1      -2.122   3.351  -1.494  0.00  0.00    -0.327 OA
BRANCH  36  37
ATOM     37  C   UNL d   1      -2.924   2.165  -1.521  0.00  0.00     0.294 C 
ATOM     38  C   UNL d   1      -3.556   1.868  -2.898  0.00  0.00     0.204 C 
ATOM     39  C   UNL d   1      -4.099   0.416  -2.879  0.00  0.00     0.187 C 
ATOM     40  C   UNL d   1      -4.492  -0.042  -1.438  0.00  0.00     0.279 C 
ATOM     41  C   UNL d   1      -4.816   1.115  -0.452  0.00  0.00     0.183 C 
ATOM     42  O   UNL d   1      -4.018   2.297  -0.609  0.00  0.00    -0.349 OA
BRANCH  38  43
ATOM     43  O   UNL d   1      -4.643   2.753  -3.143  0.00  0.00    -0.388 OA
ATOM     44  H   UNL d   1      -4.306   3.639  -3.353  0.00  0.00     0.210 HD
ENDBRANCH  38  43
BRANCH  39  45
ATOM     45  O   UNL d   1      -3.048  -0.430  -3.367  0.00  0.00    -0.391 OA
ATOM     46  H   UNL d   1      -2.228  -0.253  -2.833  0.00  0.00     0.210 HD
ENDBRANCH  39  45
BRANCH  40  47
ATOM     47  N   UNL d   1      -5.630  -0.964  -1.535  0.00  0.00     0.088 N 
ATOM     48  H   UNL d   1      -6.229  -0.945  -0.708  0.00  0.00     0.313 HD
ATOM     49  H   UNL d   1      -5.256  -1.915  -1.575  0.00  0.00     0.313 HD
ENDBRANCH  40  47
BRANCH  41  50
ATOM     50  C   UNL d   1      -4.568   0.672   0.993  0.00  0.00     0.198 C 
BRANCH  50  51
ATOM     51  O   UNL d   1      -5.062   1.661   1.888  0.00  0.00    -0.398 OA
ATOM     52  H   UNL d   1      -4.359   2.323   1.990  0.00  0.00     0.209 HD
ENDBRANCH  50  51
ENDBRANCH  41  50
ENDBRANCH  36  37
ENDBRANCH   8  36
TORSDOF 16
