@<TRIPOS>MOLECULE
1YRJ_AM2_A_151
 78 81 0 0 0
SMALL
GASTEIGER

@<TRIPOS>ATOM
      1 C           2.5785   -0.6546   -1.3941 C.3     1  UNL1        0.1752
      2 H           3.5895   -0.9975   -1.1923 H       1  UNL1        0.0926
      3 C           1.7786   -0.7787   -0.0374 C.3     1  UNL1        0.0590
      4 H           2.5436   -1.0362    0.7158 H       1  UNL1        0.0509
      5 C           1.1116    0.4877    0.5347 C.3     1  UNL1       -0.0040
      6 C           0.9817    1.6990   -0.3889 C.3     1  UNL1        0.0920
      7 H           1.4635    2.5835    0.0730 H       1  UNL1        0.0624
      8 C           1.5090    1.4327   -1.7833 C.3     1  UNL1        0.1153
      9 H           0.8016    0.7903   -2.3324 H       1  UNL1        0.0649
     10 C           1.5075    2.7512   -2.5692 C.3     1  UNL1        0.1038
     11 H           1.8709    2.4972   -3.5685 H       1  UNL1        0.0637
     12 C           0.1008    3.4143   -2.5222 C.3     1  UNL1        0.0877
     13 H          -0.4567    2.8463   -3.2765 H       1  UNL1        0.0537
     14 C          -0.6982    3.2164   -1.1709 C.3     1  UNL1        0.1803
     15 H          -0.4900    3.9846   -0.3938 H       1  UNL1        0.0928
     16 O          -0.4034    1.9636   -0.5454 O.3     1  UNL1       -0.3436
     17 O          -2.1222    3.3509   -1.4943 O.3     1  UNL1       -0.3184
     18 C          -2.9242    2.1653   -1.5210 C.3     1  UNL1        0.1908
     19 H          -2.3207    1.3132   -1.2017 H       1  UNL1        0.0938
     20 C          -3.5556    1.8684   -2.8985 C.3     1  UNL1        0.1332
     21 H          -2.8166    2.0127   -3.6915 H       1  UNL1        0.0671
     22 C          -4.0989    0.4158   -2.8794 C.3     1  UNL1        0.1033
     23 H          -4.9482    0.2456   -3.5764 H       1  UNL1        0.0637
     24 C          -4.4925   -0.0415   -1.4377 C.3     1  UNL1        0.0626
     25 H          -3.6715   -0.6206   -1.0057 H       1  UNL1        0.0511
     26 C          -4.8156    1.1147   -0.4524 C.3     1  UNL1        0.1023
     27 H          -5.8636    1.4301   -0.5418 H       1  UNL1        0.0636
     28 C          -4.5676    0.6719    0.9926 C.3     1  UNL1        0.0720
     29 O          -5.0618    1.6613    1.8879 O.3     1  UNL1       -0.3924
     30 O          -4.0182    2.2971   -0.6094 O.3     1  UNL1       -0.3415
     31 N          -5.6303   -0.9642   -1.5352 N.3     1  UNL1       -0.3230
     32 O          -3.0481   -0.4300   -3.3670 O.3     1  UNL1       -0.3874
     33 O          -4.6432    2.7526   -3.1434 O.3     1  UNL1       -0.3841
     34 N           0.1228    4.8355   -2.9491 N.3     1  UNL1       -0.3099
     35 C          -1.2122    5.3126   -3.3172 C.3     1  UNL1       -0.0153
     36 O           2.4542    3.6943   -2.0846 O.3     1  UNL1       -0.3874
     37 O           2.7682    0.7691   -1.7082 O.3     1  UNL1       -0.3413
     38 N           0.7772   -1.8349    0.0520 N.3     1  UNL1       -0.3231
     39 O           2.0225   -1.4110   -2.4993 O.3     1  UNL1       -0.3423
     40 C           2.5270   -2.7480   -2.8741 C.3     1  UNL1        0.1051
     41 H           2.2302   -2.7755   -3.9244 H       1  UNL1        0.0639
     42 C           4.0454   -3.0054   -2.7428 C.3     1  UNL1        0.1101
     43 H           4.3911   -2.6643   -1.7756 H       1  UNL1        0.0646
     44 C           4.4612   -4.5128   -2.8077 C.3     1  UNL1        0.0986
     45 H           4.2734   -5.0008   -3.7565 H       1  UNL1        0.0635
     46 C           3.8070   -5.2510   -1.6108 C.3     1  UNL1        0.0351
     47 H           4.4901   -5.1385   -0.7477 H       1  UNL1        0.0485
     48 C           2.4655   -4.6787   -1.1623 C.3     1  UNL1       -0.0175
     49 C           1.6995   -3.7753   -2.1093 C.3     1  UNL1        0.0355
     50 H           1.1210   -3.1736   -1.4543 H       1  UNL1        0.0485
     51 N           0.5858   -4.3562   -2.8687 N.3     1  UNL1       -0.3250
     52 N           3.5797   -6.6814   -1.7990 N.3     1  UNL1       -0.3250
     53 O           5.9024   -4.5663   -2.5640 O.3     1  UNL1       -0.3876
     54 O           4.7236   -2.2209   -3.7227 O.3     1  UNL1       -0.3866
     55 H           1.6726    0.8021    1.4210 H       1  UNL1        0.0308
     56 H           0.1071    0.2641    0.9513 H       1  UNL1        0.0308
     57 H          -3.4952    0.5531    1.1765 H       1  UNL1        0.0583
     58 H          -5.0536   -0.2759    1.2300 H       1  UNL1        0.0583
     59 H          -4.3588    2.3230    1.9901 H       1  UNL1        0.2095
     60 H          -6.2291   -0.9447   -0.7080 H       1  UNL1        0.1186
     61 H          -5.2562   -1.9155   -1.5751 H       1  UNL1        0.1186
     62 H          -2.2283   -0.2531   -2.8329 H       1  UNL1        0.2100
     63 H          -4.3056    3.6390   -3.3526 H       1  UNL1        0.2101
     64 H           0.7205    4.9263   -3.7741 H       1  UNL1        0.1221
     65 H          -1.1849    5.9282   -4.2246 H       1  UNL1        0.0388
     66 H          -1.6316    5.9304   -2.5107 H       1  UNL1        0.0388
     67 H          -1.9164    4.4972   -3.5346 H       1  UNL1        0.0388
     68 H           2.9608    3.3008   -1.3765 H       1  UNL1        0.2100
     69 H           0.7690   -2.2177    0.9844 H       1  UNL1        0.1186
     70 H          -0.1687   -1.5266   -0.1642 H       1  UNL1        0.1186
     71 H           1.8114   -5.4451   -0.7411 H       1  UNL1        0.0297
     72 H           2.7237   -4.0346   -0.3008 H       1  UNL1        0.0297
     73 H           0.0298   -4.9004   -2.2206 H       1  UNL1        0.1185
     74 H          -0.0216   -3.5410   -3.0571 H       1  UNL1        0.1185
     75 H           3.2472   -7.0964   -0.9343 H       1  UNL1        0.1185
     76 H           4.4066   -7.1746   -2.0792 H       1  UNL1        0.1185
     77 H           6.3420   -4.5399   -3.4370 H       1  UNL1        0.2100
     78 H           5.6198   -2.5664   -3.8350 H       1  UNL1        0.2100
@<TRIPOS>BOND
     1     1     2    1
     2     3     1    1
     3     3     4    1
     4     5     3    1
     5     6     5    1
     6     6     7    1
     7     8     6    1
     8     8     9    1
     9    10     8    1
    10    10    11    1
    11    12    10    1
    12    12    13    1
    13    14    12    1
    14    14    15    1
    15    16    14    1
    16    16     6    1
    17    17    14    1
    18    18    17    1
    19    18    19    1
    20    20    18    1
    21    20    21    1
    22    22    20    1
    23    22    23    1
    24    24    22    1
    25    24    25    1
    26    26    24    1
    27    26    27    1
    28    28    26    1
    29    29    28    1
    30    30    26    1
    31    30    18    1
    32    31    24    1
    33    32    22    1
    34    33    20    1
    35    34    12    1
    36    35    34    1
    37    36    10    1
    38    37     8    1
    39    37     1    1
    40    38     3    1
    41    39     1    1
    42    40    39    1
    43    40    41    1
    44    42    40    1
    45    42    43    1
    46    44    42    1
    47    44    45    1
    48    46    44    1
    49    46    47    1
    50    48    46    1
    51    49    48    1
    52    49    50    1
    53    49    40    1
    54    51    49    1
    55    52    46    1
    56    53    44    1
    57    54    42    1
    58     5    55    1
    59     5    56    1
    60    28    57    1
    61    28    58    1
    62    29    59    1
    63    31    60    1
    64    31    61    1
    65    32    62    1
    66    33    63    1
    67    34    64    1
    68    35    65    1
    69    35    66    1
    70    35    67    1
    71    36    68    1
    72    38    69    1
    73    38    70    1
    74    48    71    1
    75    48    72    1
    76    51    73    1
    77    51    74    1
    78    52    75    1
    79    52    76    1
    80    53    77    1
    81    54    78    1
