@<TRIPOS>MOLECULE
3SKI_GNG_A_120
 32 34 0 0 0
SMALL
GASTEIGER

@<TRIPOS>ATOM
      1 O5*         3.5051   -3.7523   -0.6209 O.3     1    G1       -0.3924
      2 C5*         4.1200   -2.4786   -0.4903 C.3     1    G1        0.0729
      3 C4*         3.2554   -1.3141   -1.0004 C.3     1    G1        0.1100
      4 H4*         3.7521   -0.8630   -1.8691 H       1    G1        0.0646
      5 O4*         1.9593   -1.7489   -1.4468 O.3     1    G1       -0.3484
      6 C1*         0.9768   -0.7221   -1.1660 C.3     1    G1        0.1407
      7 H1*         0.5808   -0.3585   -2.1210 H       1    G1        0.0840
      8 N9         -0.1409   -1.3177   -0.4421 N.ar    1    G1       -0.2893
      9 C8         -0.2517   -2.6490   -0.0905 C.ar    1    G1        0.1004
     10 N7         -1.3915   -2.9295    0.5108 N.ar    1    G1       -0.2286
     11 C5         -2.0570   -1.7426    0.5323 C.ar    1    G1        0.1721
     12 C4         -1.3269   -0.7490   -0.0703 C.ar    1    G1        0.1482
     13 N3         -1.7841    0.5158   -0.1524 N.ar    1    G1       -0.3122
     14 H3         -1.2279    1.2949   -0.4896 H       1    G1        0.1700
     15 C2         -3.0349    0.7569    0.4644 C.ar    1    G1        0.1952
     16 N1         -3.8903   -0.2285    0.6926 N.ar    1    G1       -0.1756
     17 C6         -3.3752   -1.4762    1.0750 C.ar    1    G1        0.3021
     18 O6         -4.0073   -2.3220    1.6954 O.2     1    G1       -0.2633
     19 N2         -3.4686    2.0629    0.3540 N.pl3   1    G1       -0.3289
     20 C2*         1.7002    0.3821   -0.4062 C.3     1    G1        0.0213
     21 C3*         2.9673   -0.2834    0.0837 C.3     1    G1        0.0876
     22 H3*         2.8011   -0.7565    1.0569 H       1    G1        0.0621
     23 O3*         4.0121    0.6673    0.2362 O.3     1    G1       -0.3890
     24 H5*         2.7570   -3.6736   -1.2341 H       1    G1        0.2095
     25 H5*1        5.0697   -2.5114   -1.0370 H       1    G1        0.0584
     26 H5*2        4.3742   -2.3528    0.5670 H       1    G1        0.0584
     27 H8          0.5250   -3.3718   -0.2970 H       1    G1        0.1030
     28 H21        -3.1653    2.6865    1.0990 H       1    G1        0.1451
     29 H22        -3.3145    2.5008   -0.5515 H       1    G1        0.1451
     30 H2*1        1.9475    1.2052   -1.0894 H       1    G1        0.0335
     31 H2*2        1.1160    0.8120    0.4147 H       1    G1        0.0335
     32 H3*         4.7370    0.4437   -0.3711 H       1    G1        0.2099
@<TRIPOS>BOND
     1     2     1    1
     2     3     2    1
     3     3     4    1
     4     5     3    1
     5     6     5    1
     6     6     7    1
     7     8     6    1
     8     9     8   ar
     9    10     9   ar
    10    11    10   ar
    11    12    11   ar
    12    12     8   ar
    13    13    12   ar
    14    13    14    1
    15    15    13   ar
    16    16    15   ar
    17    17    16   ar
    18    17    11   ar
    19    18    17    2
    20    19    15    1
    21    20     6    1
    22    21    20    1
    23    21    22    1
    24    21     3    1
    25    23    21    1
    26     1    24    1
    27     2    25    1
    28     2    26    1
    29     9    27    1
    30    19    28    1
    31    19    29    1
    32    20    30    1
    33    20    31    1
    34    23    32    1
