REMARK  5 active torsions:
REMARK  status: ('A' for Active; 'I' for Inactive)
REMARK    1  A    between atoms: CA_2  and  C_3 
REMARK    2  A    between atoms: CA_2  and  CB_5 
REMARK    3  A    between atoms: CB_5  and  CG_6 
REMARK    4  A    between atoms: CG_6  and  CD_7 
REMARK    5  A    between atoms: CD_7  and  CE_8 
ROOT
ATOM      1  N   LYS d   1      32.704  15.903  19.648  0.00  0.00     0.628 N 
ATOM      2  CA  LYS d   1      31.966  16.651  20.704  0.00  0.00     0.387 C 
ENDROOT
BRANCH   2   3
ATOM      3  C   LYS d   1      32.899  17.185  21.791  0.00  0.00     0.224 C 
ATOM      4  O   LYS d   1      34.128  17.110  21.692  0.00  0.00    -0.646 OA
ATOM      5  OXT LYS d   1      32.442  17.731  22.793  0.00  0.00    -0.646 OA
ENDBRANCH   2   3
BRANCH   2   6
ATOM      6  CB  LYS d   1      30.854  15.788  21.306  0.00  0.00     0.051 C 
BRANCH   6   7
ATOM      7  CG  LYS d   1      29.573  15.755  20.483  0.00  0.00     0.005 C 
BRANCH   7   8
ATOM      8  CD  LYS d   1      28.425  15.131  21.276  0.00  0.00     0.041 C 
BRANCH   8   9
ATOM      9  CE  LYS d   1      27.105  15.208  20.517  0.00  0.00     0.338 C 
ATOM     10  NZ  LYS d   1      27.070  14.308  19.327  0.00  0.00     0.618 N 
ENDBRANCH   8   9
ENDBRANCH   7   8
ENDBRANCH   6   7
ENDBRANCH   2   6
TORSDOF 5
