@<TRIPOS>MOLECULE
ligand.pdb
 10 9 0 0 0
SMALL
GASTEIGER

@<TRIPOS>ATOM
      1 N          32.7040   15.9030   19.6480 N.3     1  LYS1       -0.1208
      2 CA         31.9660   16.6510   20.7040 C.3     1  LYS1        0.1943
      3 C          32.8990   17.1850   21.7910 C.2     1  LYS1        0.3819
      4 O          34.1280   17.1100   21.6920 O.co2   1  LYS1       -0.2441
      5 CB         30.8540   15.7880   21.3060 C.3     1  LYS1        0.0307
      6 CG         29.5730   15.7550   20.4830 C.3     1  LYS1        0.0036
      7 CD         28.4250   15.1310   21.2760 C.3     1  LYS1        0.0206
      8 CE         27.1050   15.2080   20.5170 C.3     1  LYS1        0.1093
      9 NZ         27.0700   14.3080   19.3270 N.3     1  LYS1       -0.1314
     10 OXT        32.4420   17.7310   22.7930 O.co2   1  LYS1       -0.2441
@<TRIPOS>BOND
     1     2     3    1
     2     2     5    1
     3     2     1    1
     4     3     4   ar
     5     3    10   ar
     6     5     6    1
     7     6     7    1
     8     7     8    1
     9     8     9    1
