ligand.pdb
 OpenBabel03221814483D

 24 23  0  0  1  0  0  0  0  0999 V2000
   32.7040   15.9030   19.6480 N   0  0  0  0  0  0  0  0  0  0  0  0
   31.9660   16.6510   20.7040 C   0  0  2  0  0  0  0  0  0  0  0  0
   32.8990   17.1850   21.7910 C   0  0  0  0  0  0  0  0  0  0  0  0
   34.1280   17.1100   21.6920 O   0  0  0  0  0  0  0  0  0  0  0  0
   30.8540   15.7880   21.3060 C   0  0  0  0  0  0  0  0  0  0  0  0
   29.5730   15.7550   20.4830 C   0  0  0  0  0  0  0  0  0  0  0  0
   28.4250   15.1310   21.2760 C   0  0  0  0  0  0  0  0  0  0  0  0
   27.1050   15.2080   20.5170 C   0  0  0  0  0  0  0  0  0  0  0  0
   27.0700   14.3080   19.3270 N   0  0  0  0  0  0  0  0  0  0  0  0
   32.4420   17.7310   22.7930 O   0  0  0  0  0  0  0  0  0  0  0  0
   33.4386   16.4960   19.2617 H   0  0  0  0  0  0  0  0  0  0  0  0
   32.0574   15.6357   18.9058 H   0  0  0  0  0  0  0  0  0  0  0  0
   31.5160   17.5010   20.2350 H   0  0  0  0  0  0  0  0  0  0  0  0
   30.6193   16.1726   22.2765 H   0  0  0  0  0  0  0  0  0  0  0  0
   31.2258   14.7851   21.3356 H   0  0  0  0  0  0  0  0  0  0  0  0
   29.7410   15.1773   19.5982 H   0  0  0  0  0  0  0  0  0  0  0  0
   29.3051   16.7598   20.2311 H   0  0  0  0  0  0  0  0  0  0  0  0
   28.3216   15.6528   22.2044 H   0  0  0  0  0  0  0  0  0  0  0  0
   28.6555   14.0988   21.4385 H   0  0  0  0  0  0  0  0  0  0  0  0
   26.9577   16.2156   20.1883 H   0  0  0  0  0  0  0  0  0  0  0  0
   26.3305   14.8913   21.1839 H   0  0  0  0  0  0  0  0  0  0  0  0
   27.7993   14.5848   18.6698 H   0  0  0  0  0  0  0  0  0  0  0  0
   26.1590   14.3790   18.8737 H   0  0  0  0  0  0  0  0  0  0  0  0
   31.5146   17.8068   22.9035 H   0  0  0  0  0  0  0  0  0  0  0  0
  1 11  1  0  0  0  0
  1 12  1  0  0  0  0
  2  3  1  0  0  0  0
  2  5  1  0  0  0  0
  2  1  1  0  0  0  0
  2 13  1  6  0  0  0
  3  4  2  0  0  0  0
  3 10  1  0  0  0  0
  5  6  1  0  0  0  0
  5 14  1  0  0  0  0
  5 15  1  0  0  0  0
  6  7  1  0  0  0  0
  6 16  1  0  0  0  0
  6 17  1  0  0  0  0
  7  8  1  0  0  0  0
  7 18  1  0  0  0  0
  7 19  1  0  0  0  0
  8  9  1  0  0  0  0
  8 20  1  0  0  0  0
  8 21  1  0  0  0  0
  9 22  1  0  0  0  0
  9 23  1  0  0  0  0
 10 24  1  0  0  0  0
M  END
>  <HEADER>
RNA                                     21-JUN-08   3DJ2

>  <TITLE>
CRYSTALLIZATION OF THE THERMOTOGA MARITIMA LYSINE
2 RIBOSWITCH BOUND TO LYSINE, TL+ SOAK

>  <COMPND>
MOL_ID: 1;
2 MOLECULE: RNA (174-MER);
3 CHAIN: A;
4 ENGINEERED: YES

>  <SOURCE>
MOL_ID: 1;
2 SYNTHETIC: YES;
3 OTHER_DETAILS: IN VITRO TRANSCRIBED RNA FROM THE
4 THERMOTOGA MARITIMA MSB8 ASD GENE

>  <KEYWDS>
LYSINE, RIBOSWITCH, RNA

>  <EXPDTA>
X-RAY DIFFRACTION

>  <AUTHOR>
A.A.SERGANOV

>  <REVDAT>
3   24-FEB-09 3DJ2    1       VERSN
2   11-NOV-08 3DJ2    1       JRNL
1   16-SEP-08 3DJ2    0

>  <JRNL>
AUTH   A.SERGANOV,L.HUANG,D.J.PATEL
TITL   STRUCTURAL INSIGHTS INTO AMINO ACID BINDING AND
TITL 2 GENE CONTROL BY A LYSINE RIBOSWITCH.
REF    NATURE                        V. 455  1263 2008
REFN                   ISSN 0028-0836
PMID   18784651
DOI    10.1038/NATURE07326

>  <REMARK>
1
2
2 RESOLUTION.    2.50 ANGSTROMS.
3
3 REFINEMENT.
3   PROGRAM     : REFMAC 5.2.0019
3   AUTHORS     : MURSHUDOV,VAGIN,DODSON
3
3    REFINEMENT TARGET : MAXIMUM LIKELIHOOD
3
3  DATA USED IN REFINEMENT.
3   RESOLUTION RANGE HIGH (ANGSTROMS) : 2.50
3   RESOLUTION RANGE LOW  (ANGSTROMS) : 20.00
3   DATA CUTOFF            (SIGMA(F)) : 0.000
3   COMPLETENESS FOR RANGE        (%) : 99.0
3   NUMBER OF REFLECTIONS             : 20170
3
3  FIT TO DATA USED IN REFINEMENT.
3   CROSS-VALIDATION METHOD          : THROUGHOUT
3   FREE R VALUE TEST SET SELECTION  : RANDOM
3   R VALUE     (WORKING + TEST SET) : 0.208
3   R VALUE            (WORKING SET) : 0.205
3   FREE R VALUE                     : 0.251
3   FREE R VALUE TEST SET SIZE   (%) : 5.200
3   FREE R VALUE TEST SET COUNT      : 1098
3
3  FIT IN THE HIGHEST RESOLUTION BIN.
3   TOTAL NUMBER OF BINS USED           : 20
3   BIN RESOLUTION RANGE HIGH       (A) : 2.50
3   BIN RESOLUTION RANGE LOW        (A) : 2.56
3   REFLECTION IN BIN     (WORKING SET) : 1430
3   BIN COMPLETENESS (WORKING+TEST) (%) : 97.56
3   BIN R VALUE           (WORKING SET) : 0.3410
3   BIN FREE R VALUE SET COUNT          : 89
3   BIN FREE R VALUE                    : 0.3850
3
3  NUMBER OF NON-HYDROGEN ATOMS USED IN REFINEMENT.
3   PROTEIN ATOMS            : 0
3   NUCLEIC ACID ATOMS       : 3752
3   HETEROGEN ATOMS          : 29
3   SOLVENT ATOMS            : 122
3
3  B VALUES.
3   FROM WILSON PLOT           (A**2) : NULL
3   MEAN B VALUE      (OVERALL, A**2) : 28.43
3   OVERALL ANISOTROPIC B VALUE.
3    B11 (A**2) : -0.35000
3    B22 (A**2) : -3.07000
3    B33 (A**2) : 3.42000
3    B12 (A**2) : 0.00000
3    B13 (A**2) : 0.00000
3    B23 (A**2) : 0.00000
3
3  ESTIMATED OVERALL COORDINATE ERROR.
3   ESU BASED ON R VALUE                            (A): 0.485
3   ESU BASED ON FREE R VALUE                       (A): 0.282
3   ESU BASED ON MAXIMUM LIKELIHOOD                 (A): 0.203
3   ESU FOR B VALUES BASED ON MAXIMUM LIKELIHOOD (A**2): 17.146
3
3 CORRELATION COEFFICIENTS.
3   CORRELATION COEFFICIENT FO-FC      : 0.939
3   CORRELATION COEFFICIENT FO-FC FREE : 0.910
3
3  RMS DEVIATIONS FROM IDEAL VALUES        COUNT    RMS    WEIGHT
3   BOND LENGTHS REFINED ATOMS        (A):  4212 ; 0.006 ; 0.021
3   BOND LENGTHS OTHERS               (A):  NULL ;  NULL ;  NULL
3   BOND ANGLES REFINED ATOMS   (DEGREES):  6572 ; 1.196 ; 2.999
3   BOND ANGLES OTHERS          (DEGREES):  NULL ;  NULL ;  NULL
3   TORSION ANGLES, PERIOD 1    (DEGREES):  NULL ;  NULL ;  NULL
3   TORSION ANGLES, PERIOD 2    (DEGREES):  NULL ;  NULL ;  NULL
3   TORSION ANGLES, PERIOD 3    (DEGREES):     4 ;13.629 ;15.000
3   TORSION ANGLES, PERIOD 4    (DEGREES):  NULL ;  NULL ;  NULL
3   CHIRAL-CENTER RESTRAINTS       (A**3):   871 ; 0.083 ; 0.200
3   GENERAL PLANES REFINED ATOMS      (A):  1838 ; 0.003 ; 0.020
3   GENERAL PLANES OTHERS             (A):  NULL ;  NULL ;  NULL
3   NON-BONDED CONTACTS REFINED ATOMS (A):  1589 ; 0.149 ; 0.200
3   NON-BONDED CONTACTS OTHERS        (A):  NULL ;  NULL ;  NULL
3   NON-BONDED TORSION REFINED ATOMS  (A):  2628 ; 0.262 ; 0.200
3   NON-BONDED TORSION OTHERS         (A):  NULL ;  NULL ;  NULL
3   H-BOND (X...Y) REFINED ATOMS      (A):   230 ; 0.130 ; 0.200
3   H-BOND (X...Y) OTHERS             (A):  NULL ;  NULL ;  NULL
3   POTENTIAL METAL-ION REFINED ATOMS (A):     3 ; 0.108 ; 0.200
3   POTENTIAL METAL-ION OTHERS        (A):  NULL ;  NULL ;  NULL
3   SYMMETRY VDW REFINED ATOMS        (A):    47 ; 0.122 ; 0.200
3   SYMMETRY VDW OTHERS               (A):  NULL ;  NULL ;  NULL
3   SYMMETRY H-BOND REFINED ATOMS     (A):    12 ; 0.170 ; 0.200
3   SYMMETRY H-BOND OTHERS            (A):  NULL ;  NULL ;  NULL
3   SYMMETRY METAL-ION REFINED ATOMS  (A):  NULL ;  NULL ;  NULL
3   SYMMETRY METAL-ION OTHERS         (A):  NULL ;  NULL ;  NULL
3
3  ISOTROPIC THERMAL FACTOR RESTRAINTS.     COUNT   RMS    WEIGHT
3   MAIN-CHAIN BOND REFINED ATOMS  (A**2):     8 ; 0.061 ; 1.500
3   MAIN-CHAIN BOND OTHER ATOMS    (A**2):  NULL ;  NULL ;  NULL
3   MAIN-CHAIN ANGLE REFINED ATOMS (A**2):     9 ; 0.078 ; 2.000
3   SIDE-CHAIN BOND REFINED ATOMS  (A**2):  5058 ; 0.498 ; 3.000
3   SIDE-CHAIN ANGLE REFINED ATOMS (A**2):  6563 ; 0.800 ; 4.500
3
3 ANISOTROPIC THERMAL FACTOR RESTRAINTS.    COUNT   RMS   WEIGHT
3   RIGID-BOND RESTRAINTS          (A**2):  NULL ;  NULL ;  NULL
3   SPHERICITY; FREE ATOMS         (A**2):  NULL ;  NULL ;  NULL
3   SPHERICITY; BONDED ATOMS       (A**2):  NULL ;  NULL ;  NULL
3
3  NCS RESTRAINTS STATISTICS
3   NUMBER OF DIFFERENT NCS GROUPS : NULL
3
3  TLS DETAILS
3   NUMBER OF TLS GROUPS  : 5
3
3   TLS GROUP : 1
3    NUMBER OF COMPONENTS GROUP : 2
3    COMPONENTS        C SSSEQI   TO  C SSSEQI
3    RESIDUE RANGE :   A     1        A    11
3    RESIDUE RANGE :   A   163        A   174
3    ORIGIN FOR THE GROUP (A):  29.4430  -1.7580  18.7320
3    T TENSOR
3      T11:  -0.0229 T22:  -0.0452
3      T33:  -0.0659 T12:   0.0456
3      T13:  -0.0055 T23:  -0.0239
3    L TENSOR
3      L11:   0.8748 L22:   4.1174
3      L33:   2.0234 L12:   1.3588
3      L13:   0.0380 L23:  -1.1645
3    S TENSOR
3      S11:   0.0161 S12:   0.2114 S13:  -0.1710
3      S21:  -0.6072 S22:   0.0180 S23:  -0.1445
3      S31:   0.4610 S32:  -0.2039 S33:  -0.0341
3
3   TLS GROUP : 2
3    NUMBER OF COMPONENTS GROUP : 1
3    COMPONENTS        C SSSEQI   TO  C SSSEQI
3    RESIDUE RANGE :   A    12        A    79
3    ORIGIN FOR THE GROUP (A):   7.0870  47.2050  20.9690
3    T TENSOR
3      T11:   0.0612 T22:   0.0078
3      T33:   0.1049 T12:   0.1059
3      T13:   0.0030 T23:   0.0447
3    L TENSOR
3      L11:   1.1460 L22:   0.5917
3      L33:   1.4457 L12:   0.1738
3      L13:   0.4809 L23:   0.4632
3    S TENSOR
3      S11:  -0.2105 S12:   0.0729 S13:   0.5113
3      S21:  -0.0083 S22:  -0.0102 S23:   0.1118
3      S31:  -0.6279 S32:  -0.3402 S33:   0.2207
3
3   TLS GROUP : 3
3    NUMBER OF COMPONENTS GROUP : 1
3    COMPONENTS        C SSSEQI   TO  C SSSEQI
3    RESIDUE RANGE :   A    80        A   113
3    ORIGIN FOR THE GROUP (A):   8.6470  27.1570  11.0520
3    T TENSOR
3      T11:  -0.1029 T22:  -0.0099
3      T33:  -0.0298 T12:   0.0315
3      T13:  -0.0249 T23:  -0.0157
3    L TENSOR
3      L11:   3.0894 L22:   0.6950
3      L33:   0.9643 L12:  -1.3370
3      L13:   1.1069 L23:  -0.7350
3    S TENSOR
3      S11:   0.1073 S12:   0.3509 S13:  -0.1870
3      S21:  -0.0142 S22:  -0.0947 S23:   0.2587
3      S31:  -0.0936 S32:  -0.0295 S33:  -0.0126
3
3   TLS GROUP : 4
3    NUMBER OF COMPONENTS GROUP : 1
3    COMPONENTS        C SSSEQI   TO  C SSSEQI
3    RESIDUE RANGE :   A   114        A   140
3    ORIGIN FOR THE GROUP (A):  29.7300  33.6540  15.0110
3    T TENSOR
3      T11:  -0.1282 T22:  -0.0262
3      T33:  -0.0349 T12:   0.0151
3      T13:  -0.0045 T23:   0.0402
3    L TENSOR
3      L11:   2.4101 L22:   1.6933
3      L33:   0.6716 L12:  -1.8954
3      L13:   0.2498 L23:  -0.1075
3    S TENSOR
3      S11:   0.1284 S12:   0.4148 S13:   0.4176
3      S21:  -0.1260 S22:  -0.2288 S23:  -0.3463
3      S31:  -0.1127 S32:   0.0268 S33:   0.1004
3
3   TLS GROUP : 5
3    NUMBER OF COMPONENTS GROUP : 1
3    COMPONENTS        C SSSEQI   TO  C SSSEQI
3    RESIDUE RANGE :   A   141        A   162
3    ORIGIN FOR THE GROUP (A):  50.2890   8.6920  15.5880
3    T TENSOR
3      T11:  -0.0483 T22:  -0.0260
3      T33:   0.2205 T12:   0.0596
3      T13:   0.0379 T23:   0.0657
3    L TENSOR
3      L11:   9.6632 L22:   1.3311
3      L33:   1.8151 L12:   2.0738
3      L13:  -0.9979 L23:   0.4672
3    S TENSOR
3      S11:  -0.2863 S12:  -0.3101 S13:  -1.1529
3      S21:   0.2065 S22:  -0.0884 S23:  -0.4928
3      S31:   0.2735 S32:   0.1952 S33:   0.3747
3
3  BULK SOLVENT MODELLING.
3   METHOD USED : MASK
3   PARAMETERS FOR MASK CALCULATION
3   VDW PROBE RADIUS   : 1.40
3   ION PROBE RADIUS   : 0.80
3   SHRINKAGE RADIUS   : 0.80
3
3  OTHER REFINEMENT REMARKS: HYDROGENS HAVE BEEN ADDED IN THE
3  RIDING POSITIONS
4
4 3DJ2 COMPLIES WITH FORMAT V. 3.15, 01-DEC-08
100
100 THIS ENTRY HAS BEEN PROCESSED BY RCSB ON 09-JUL-08.
100 THE RCSB ID CODE IS RCSB048099.
200
200 EXPERIMENTAL DETAILS
200  EXPERIMENT TYPE                : X-RAY DIFFRACTION
200  DATE OF DATA COLLECTION        : 06-FEB-08
200  TEMPERATURE           (KELVIN) : 100
200  PH                             : 5.7
200  NUMBER OF CRYSTALS USED        : 1
200
200  SYNCHROTRON              (Y/N) : Y
200  RADIATION SOURCE               : NSLS
200  BEAMLINE                       : X29A
200  X-RAY GENERATOR MODEL          : NULL
200  MONOCHROMATIC OR LAUE    (M/L) : M
200  WAVELENGTH OR RANGE        (A) : 0.98
200  MONOCHROMATOR                  : NULL
200  OPTICS                         : NULL
200
200  DETECTOR TYPE                  : CCD
200  DETECTOR MANUFACTURER          : ADSC QUANTUM 4
200  INTENSITY-INTEGRATION SOFTWARE : HKL-2000
200  DATA SCALING SOFTWARE          : HKL-2000
200
200  NUMBER OF UNIQUE REFLECTIONS   : 21350
200  RESOLUTION RANGE HIGH      (A) : 2.500
200  RESOLUTION RANGE LOW       (A) : 20.000
200  REJECTION CRITERIA  (SIGMA(I)) : 0.000
200
200 OVERALL.
200  COMPLETENESS FOR RANGE     (%) : 99.2
200  DATA REDUNDANCY                : 8.000
200  R MERGE                    (I) : 0.10200
200  R SYM                      (I) : NULL
200  <I/SIGMA(I)> FOR THE DATA SET  : 26.8000
200
200 IN THE HIGHEST RESOLUTION SHELL.
200  HIGHEST RESOLUTION SHELL, RANGE HIGH (A) : 2.50
200  HIGHEST RESOLUTION SHELL, RANGE LOW  (A) : 2.59
200  COMPLETENESS FOR SHELL     (%) : 98.1
200  DATA REDUNDANCY IN SHELL       : 7.50
200  R MERGE FOR SHELL          (I) : 0.58500
200  R SYM FOR SHELL            (I) : NULL
200  <I/SIGMA(I)> FOR SHELL         : 4.100
200
200 DIFFRACTION PROTOCOL: SINGLE WAVELENGTH
200 METHOD USED TO DETERMINE THE STRUCTURE: FOURIER SYNTHESIS
200 SOFTWARE USED: REFMAC
200 STARTING MODEL: PDB ENTRY 3DIL
200
200 REMARK: NULL
280
280 CRYSTAL
280 SOLVENT CONTENT, VS   (%): 53.60
280 MATTHEWS COEFFICIENT, VM (ANGSTROMS**3/DA): 2.65
280
280 CRYSTALLIZATION CONDITIONS: 18% PEG 4000, 0.1M SODIUM CITRATE,
280  20% ISOPROPANOL, PH 5.7, VAPOR DIFFUSION, HANGING DROP,
280  TEMPERATURE 293K
290
290 CRYSTALLOGRAPHIC SYMMETRY
290 SYMMETRY OPERATORS FOR SPACE GROUP: P 21 21 21
290
290      SYMOP   SYMMETRY
290     NNNMMM   OPERATOR
290       1555   X,Y,Z
290       2555   -X+1/2,-Y,Z+1/2
290       3555   -X,Y+1/2,-Z+1/2
290       4555   X+1/2,-Y+1/2,-Z
290
290     WHERE NNN -> OPERATOR NUMBER
290           MMM -> TRANSLATION VECTOR
290
290 CRYSTALLOGRAPHIC SYMMETRY TRANSFORMATIONS
290 THE FOLLOWING TRANSFORMATIONS OPERATE ON THE ATOM/HETATM
290 RECORDS IN THIS ENTRY TO PRODUCE CRYSTALLOGRAPHICALLY
290 RELATED MOLECULES.
290   SMTRY1   1  1.000000  0.000000  0.000000        0.00000
290   SMTRY2   1  0.000000  1.000000  0.000000        0.00000
290   SMTRY3   1  0.000000  0.000000  1.000000        0.00000
290   SMTRY1   2 -1.000000  0.000000  0.000000       27.04300
290   SMTRY2   2  0.000000 -1.000000  0.000000        0.00000
290   SMTRY3   2  0.000000  0.000000  1.000000       70.49600
290   SMTRY1   3 -1.000000  0.000000  0.000000        0.00000
290   SMTRY2   3  0.000000  1.000000  0.000000       39.37550
290   SMTRY3   3  0.000000  0.000000 -1.000000       70.49600
290   SMTRY1   4  1.000000  0.000000  0.000000       27.04300
290   SMTRY2   4  0.000000 -1.000000  0.000000       39.37550
290   SMTRY3   4  0.000000  0.000000 -1.000000        0.00000
290
290 REMARK: NULL
300
300 BIOMOLECULE: 1
300 SEE REMARK 350 FOR THE AUTHOR PROVIDED AND/OR PROGRAM
300 GENERATED ASSEMBLY INFORMATION FOR THE STRUCTURE IN
300 THIS ENTRY. THE REMARK MAY ALSO PROVIDE INFORMATION ON
300 BURIED SURFACE AREA.
350
350 COORDINATES FOR A COMPLETE MULTIMER REPRESENTING THE KNOWN
350 BIOLOGICALLY SIGNIFICANT OLIGOMERIZATION STATE OF THE
350 MOLECULE CAN BE GENERATED BY APPLYING BIOMT TRANSFORMATIONS
350 GIVEN BELOW.  BOTH NON-CRYSTALLOGRAPHIC AND
350 CRYSTALLOGRAPHIC OPERATIONS ARE GIVEN.
350
350 BIOMOLECULE: 1
350 AUTHOR DETERMINED BIOLOGICAL UNIT: MONOMERIC
350 SOFTWARE DETERMINED QUATERNARY STRUCTURE: MONOMERIC
350 SOFTWARE USED: PISA
350 APPLY THE FOLLOWING TO CHAINS: A
350   BIOMT1   1  1.000000  0.000000  0.000000        0.00000
350   BIOMT2   1  0.000000  1.000000  0.000000        0.00000
350   BIOMT3   1  0.000000  0.000000  1.000000        0.00000
500
500 GEOMETRY AND STEREOCHEMISTRY
500 SUBTOPIC: COVALENT BOND LENGTHS
500
500 THE STEREOCHEMICAL PARAMETERS OF THE FOLLOWING RESIDUES
500 HAVE VALUES WHICH DEVIATE FROM EXPECTED VALUES BY MORE
500 THAN 6*RMSD (M=MODEL NUMBER; RES=RESIDUE NAME; C=CHAIN
500 IDENTIFIER; SSEQ=SEQUENCE NUMBER; I=INSERTION CODE).
500
500 STANDARD TABLE:
500 FORMAT: (10X,I3,1X,2(A3,1X,A1,I4,A1,1X,A4,3X),1X,F6.3)
500
500 EXPECTED VALUES PROTEIN: ENGH AND HUBER, 1999
500 EXPECTED VALUES NUCLEIC ACID: CLOWNEY ET AL 1996
500
500  M RES CSSEQI ATM1   RES CSSEQI ATM2   DEVIATION
500      G A   1   P       G A   1   OP3    -0.121
500
500 REMARK: NULL
500
500 GEOMETRY AND STEREOCHEMISTRY
500 SUBTOPIC: COVALENT BOND ANGLES
500
500 THE STEREOCHEMICAL PARAMETERS OF THE FOLLOWING RESIDUES
500 HAVE VALUES WHICH DEVIATE FROM EXPECTED VALUES BY MORE
500 THAN 6*RMSD (M=MODEL NUMBER; RES=RESIDUE NAME; C=CHAIN
500 IDENTIFIER; SSEQ=SEQUENCE NUMBER; I=INSERTION CODE).
500
500 STANDARD TABLE:
500 FORMAT: (10X,I3,1X,A3,1X,A1,I4,A1,3(1X,A4,2X),12X,F5.1)
500
500 EXPECTED VALUES PROTEIN: ENGH AND HUBER, 1999
500 EXPECTED VALUES NUCLEIC ACID: CLOWNEY ET AL 1996
500
500  M RES CSSEQI ATM1   ATM2   ATM3
500      U A 153   C1' -  O4' -  C4' ANGL. DEV. =  -5.8 DEGREES
500      U A 153   O4' -  C1' -  N1  ANGL. DEV. =   5.0 DEGREES
500
500 REMARK: NULL
620
620 METAL COORDINATION
620  (M=MODEL NUMBER; RES=RESIDUE NAME; C=CHAIN IDENTIFIER;
620  SSEQ=SEQUENCE NUMBER; I=INSERTION CODE):
620
620 COORDINATION ANGLES FOR:  M RES CSSEQI METAL
620                              NA A 206  NA
620 N RES CSSEQI ATOM
620 1   G A   9   O6
620 2 HOH A 334   O    78.9
620 3 HOH A 417   O   132.9 122.1
620 N                    1     2
620
620 COORDINATION ANGLES FOR:  M RES CSSEQI METAL
620                              NA A 204  NA
620 N RES CSSEQI ATOM
620 1   G A  11   OP2
620 2   G A  12   O6   72.9
620 3 HOH A 352   O   105.1 177.3
620 4 HOH A 351   O    78.7  79.5  98.4
620 N                    1     2     3
620
620 COORDINATION ANGLES FOR:  M RES CSSEQI METAL
620                              NA A 202  NA
620 N RES CSSEQI ATOM
620 1   G A  20   O6
620 2   G A  71   O6   76.7
620 3 HOH A 344   O    81.2  73.0
620 4 HOH A 321   O    79.3  94.5 158.8
620 N                    1     2     3
620
620 COORDINATION ANGLES FOR:  M RES CSSEQI METAL
620                              NA A 201  NA
620 N RES CSSEQI ATOM
620 1 HOH A 414   O
620 2 HOH A 315   O   109.0
620 N                    1
800
800 SITE
800 SITE_IDENTIFIER: AC1
800 EVIDENCE_CODE: SOFTWARE
800 SITE_DESCRIPTION: BINDING SITE FOR RESIDUE NA A 201
800 SITE_IDENTIFIER: AC2
800 EVIDENCE_CODE: SOFTWARE
800 SITE_DESCRIPTION: BINDING SITE FOR RESIDUE NA A 202
800 SITE_IDENTIFIER: AC3
800 EVIDENCE_CODE: SOFTWARE
800 SITE_DESCRIPTION: BINDING SITE FOR RESIDUE NA A 204
800 SITE_IDENTIFIER: AC4
800 EVIDENCE_CODE: SOFTWARE
800 SITE_DESCRIPTION: BINDING SITE FOR RESIDUE NA A 206
800 SITE_IDENTIFIER: AC5
800 EVIDENCE_CODE: SOFTWARE
800 SITE_DESCRIPTION: BINDING SITE FOR RESIDUE NA A 207
800 SITE_IDENTIFIER: AC6
800 EVIDENCE_CODE: SOFTWARE
800 SITE_DESCRIPTION: BINDING SITE FOR RESIDUE LYS A 175
800 SITE_IDENTIFIER: BC2
800 EVIDENCE_CODE: SOFTWARE
800 SITE_DESCRIPTION: BINDING SITE FOR RESIDUE TL A 254
800 SITE_IDENTIFIER: BC4
800 EVIDENCE_CODE: SOFTWARE
800 SITE_DESCRIPTION: BINDING SITE FOR RESIDUE TL A 256
800 SITE_IDENTIFIER: BC6
800 EVIDENCE_CODE: SOFTWARE
800 SITE_DESCRIPTION: BINDING SITE FOR RESIDUE TL A 258
800 SITE_IDENTIFIER: BC7
800 EVIDENCE_CODE: SOFTWARE
800 SITE_DESCRIPTION: BINDING SITE FOR RESIDUE TL A 259
900
900 RELATED ENTRIES
900 RELATED ID: 3DIG   RELATED DB: PDB
900 RELATED ID: 3DIL   RELATED DB: PDB
900 RELATED ID: 3DIM   RELATED DB: PDB
900 RELATED ID: 3DIO   RELATED DB: PDB
900 RELATED ID: 3DIQ   RELATED DB: PDB
900 RELATED ID: 3DIR   RELATED DB: PDB
900 RELATED ID: 3DIS   RELATED DB: PDB
900 RELATED ID: 3DIX   RELATED DB: PDB
900 RELATED ID: 3DIY   RELATED DB: PDB
900 RELATED ID: 3DIZ   RELATED DB: PDB
900 RELATED ID: 3DJ0   RELATED DB: PDB

>  <DBREF>
3DJ2 A    1   174  PDB    3DJ2     3DJ2             1    174

>  <SEQRES>
1 A  174    G   G   C   C   G   A   C   G   G   A   G   G   C
2 A  174    G   C   G   C   C   C   G   A   G   A   U   G   A
3 A  174    G   U   A   G   G   C   U   G   U   C   C   C   A
4 A  174    U   C   A   G   G   G   G   A   G   G   A   A   U
5 A  174    C   G   G   G   G   A   C   G   G   C   U   G   A
6 A  174    A   A   G   G   C   G   A   G   G   G   C   G   C
7 A  174    C   G   A   A   G   G   G   U   G   C   A   G   A
8 A  174    G   U   U   C   C   U   C   C   C   G   C   U   C
9 A  174    U   G   C   A   U   G   C   C   U   G   G   G   G
10 A  174    G   U   A   U   G   G   G   G   A   A   U   A   C
11 A  174    C   C   A   U   A   C   C   A   C   U   G   U   C
12 A  174    A   C   G   G   A   G   G   U   C   U   C   U   C
13 A  174    C   G   U   G   G   A   G   A   G   C   C   G   U
14 A  174    C   G   G   U CCC

>  <MODRES>
3DJ2 CCC A  174    C

>  <HET>
CCC  A 174      23
NA  A 201       1
NA  A 202       1
NA  A 203       1
NA  A 204       1
NA  A 205       1
NA  A 206       1
NA  A 207       1
NA  A 208       1
LYS  A 175      10
TL  A 250       1
TL  A 251       1
TL  A 252       1
TL  A 253       1
TL  A 254       1
TL  A 255       2
TL  A 256       1
TL  A 257       1
TL  A 258       1
TL  A 259       1
IPA  A 290       4

>  <HETNAM>
CCC CYTIDINE-5'-PHOSPHATE-2',3'-CYCLIC PHOSPHATE
NA SODIUM ION
LYS LYSINE
TL THALLIUM (I) ION
IPA ISOPROPYL ALCOHOL

>  <HETSYN>
IPA 2-PROPANOL

>  <FORMUL>
1  CCC    C9 H13 N3 O10 P2
2   NA    8(NA 1+)
10  LYS    C6 H15 N2 O2 1+
11   TL    10(TL 1+)
21  IPA    C3 H8 O
22  HOH   *118(H2 O)

>  <LINK>
O3'   U A 173                 P   CCC A 174     1555   1555  1.60
O6    G A   9                NA    NA A 206     1555   1555  2.65
OP2   G A  11                NA    NA A 204     1555   1555  2.51
O6    G A  12                NA    NA A 204     1555   1555  2.65
O6    G A  20                NA    NA A 202     1555   1555  2.58
O6    G A  71                NA    NA A 202     1555   1555  2.41
NA    NA A 201                 O   HOH A 414     1555   1555  2.39
NA    NA A 201                 O   HOH A 315     1555   1555  2.37
NA    NA A 202                 O   HOH A 344     1555   1555  2.49
NA    NA A 202                 O   HOH A 321     1555   1555  2.23
NA    NA A 204                 O   HOH A 352     1555   1555  2.63
NA    NA A 204                 O   HOH A 351     1555   1555  2.47
NA    NA A 205                 O   HOH A 330     1555   1555  2.62
NA    NA A 206                 O   HOH A 334     1555   1555  2.61
NA    NA A 206                 O   HOH A 417     1555   1555  2.87
NA    NA A 207                 O   HOH A 305     1555   1555  2.50
NA    NA A 208                 O   HOH A 309     1555   1555  2.43

>  <SITE>
1 AC1  2 HOH A 315  HOH A 414
1 AC2  2 HOH A 321  HOH A 344
1 AC3  2 HOH A 351  HOH A 352
1 AC4  2 HOH A 334  HOH A 417
1 AC5  2 HOH A 305  HOH A 417
1 AC6  1 HOH A 361
1 BC2  2 HOH A 348  HOH A 400
1 BC4  1 HOH A 341
1 BC6  2 HOH A 328  HOH A 345
1 BC7  2 LYS A 175  HOH A 335

>  <ORIGX1>
1.000000  0.000000  0.000000        0.00000

>  <ORIGX2>
0.000000  1.000000  0.000000        0.00000

>  <ORIGX3>
0.000000  0.000000  1.000000        0.00000

>  <SCALE1>
0.018489  0.000000  0.000000        0.00000

>  <SCALE2>
0.000000  0.012698  0.000000        0.00000

>  <SCALE3>
0.000000  0.000000  0.007093        0.00000

$$$$
