@<TRIPOS>MOLECULE
2LWK_0EC_A_101
 40 42 0 0 0
SMALL
GASTEIGER

@<TRIPOS>ATOM
      1 C           2.3922    0.6583   -0.0241 C.ar    1  UNL1        0.2201
      2 N           1.2287    1.3281    0.0516 N.ar    1  UNL1       -0.2141
      3 C           0.0790    0.6354    0.0197 C.ar    1  UNL1        0.0816
      4 C           0.0506   -0.7496   -0.0849 C.ar    1  UNL1        0.0437
      5 C           1.3007   -1.3563   -0.1610 C.ar    1  UNL1        0.1291
      6 N           1.4413   -2.7481   -0.2613 N.pl3   1  UNL1       -0.3425
      7 N           2.4494   -0.6755   -0.1413 N.ar    1  UNL1       -0.1992
      8 C          -1.1823   -1.4456   -0.0992 C.ar    1  UNL1       -0.0038
      9 C          -2.4023   -0.7764    0.0307 C.ar    1  UNL1        0.1623
     10 C          -2.3796    0.6215    0.1313 C.ar    1  UNL1        0.1635
     11 C          -1.1419    1.2955    0.1146 C.ar    1  UNL1        0.0099
     12 O          -3.4390    1.4842    0.2563 O.3     1  UNL1       -0.4914
     13 C          -4.7569    0.9555    0.2988 C.3     1  UNL1        0.0790
     14 O          -3.6039   -1.4266    0.0692 O.3     1  UNL1       -0.4914
     15 C          -3.6108   -2.8487    0.0359 C.3     1  UNL1        0.0790
     16 N           3.5683    1.3481    0.0974 N.pl3   1  UNL1       -0.2972
     17 C           3.6073    2.8058    0.1425 C.3     1  UNL1        0.0274
     18 C           4.6000    3.2464    1.2444 C.3     1  UNL1        0.0118
     19 N           5.9498    2.6606    1.0951 N.3     1  UNL1       -0.3130
     20 C           5.8446    1.1892    1.0056 C.3     1  UNL1        0.0118
     21 C           4.8612    0.6926   -0.0810 C.3     1  UNL1        0.0274
     22 H           0.9755   -3.2166    0.5075 H       1  UNL1        0.1437
     23 H           2.4414   -2.9341   -0.2533 H       1  UNL1        0.1437
     24 H          -1.1487   -2.5239   -0.2134 H       1  UNL1        0.0663
     25 H          -1.1361    2.3817    0.1902 H       1  UNL1        0.0677
     26 H          -5.4475    1.7945    0.4298 H       1  UNL1        0.0660
     27 H          -4.8948    0.2935    1.1596 H       1  UNL1        0.0660
     28 H          -5.0184    0.4659   -0.6449 H       1  UNL1        0.0660
     29 H          -4.6363   -3.1820    0.2214 H       1  UNL1        0.0660
     30 H          -2.9826   -3.2776    0.8240 H       1  UNL1        0.0660
     31 H          -3.3118   -3.2113   -0.9527 H       1  UNL1        0.0660
     32 H           2.6344    3.2613    0.3555 H       1  UNL1        0.0477
     33 H           3.9398    3.1911   -0.8300 H       1  UNL1        0.0477
     34 H           4.1965    2.9649    2.2258 H       1  UNL1        0.0439
     35 H           4.6897    4.3377    1.2334 H       1  UNL1        0.0439
     36 H           6.5039    2.9006    1.9162 H       1  UNL1        0.1220
     37 H           5.5296    0.7958    1.9807 H       1  UNL1        0.0439
     38 H           6.8399    0.7796    0.8015 H       1  UNL1        0.0439
     39 H           4.8085   -0.3996   -0.0100 H       1  UNL1        0.0477
     40 H           5.2560    0.9327   -1.0763 H       1  UNL1        0.0477
@<TRIPOS>BOND
     1     1     2   ar
     2     1     7   ar
     3     1    16    1
     4     2     3   ar
     5     3     4   ar
     6     3    11   ar
     7     4     5   ar
     8     4     8   ar
     9     5     6    1
    10     5     7   ar
    11     6    22    1
    12     6    23    1
    13     8     9   ar
    14     8    24    1
    15     9    10   ar
    16     9    14    1
    17    10    11   ar
    18    10    12    1
    19    11    25    1
    20    12    13    1
    21    13    26    1
    22    13    27    1
    23    13    28    1
    24    14    15    1
    25    15    29    1
    26    15    30    1
    27    15    31    1
    28    16    17    1
    29    16    21    1
    30    17    18    1
    31    17    32    1
    32    17    33    1
    33    18    19    1
    34    18    34    1
    35    18    35    1
    36    19    20    1
    37    19    36    1
    38    20    21    1
    39    20    37    1
    40    20    38    1
    41    21    39    1
    42    21    40    1
