REMARK  4 active torsions:
REMARK  status: ('A' for Active; 'I' for Inactive)
REMARK    1  A    between atoms: C_1  and  N_16 
REMARK    2  A    between atoms: C_5  and  N_6 
REMARK    3  A    between atoms: C_9  and  O_14 
REMARK    4  A    between atoms: C_10  and  O_12 
ROOT
ATOM      1  C   UNL d   1       2.392   0.658  -0.024  0.00  0.00     0.726 A 
ATOM      2  N   UNL d   1       1.229   1.328   0.052  0.00  0.00    -0.062 NA
ATOM      3  C   UNL d   1       0.079   0.635   0.020  0.00  0.00     0.092 A 
ATOM      4  C   UNL d   1       0.051  -0.750  -0.085  0.00  0.00     0.037 A 
ATOM      5  C   UNL d   1       1.301  -1.356  -0.161  0.00  0.00     0.132 A 
ATOM      6  N   UNL d   1       2.449  -0.675  -0.141  0.00  0.00    -0.050 NA
ATOM      7  C   UNL d   1      -1.182  -1.446  -0.099  0.00  0.00     0.057 A 
ATOM      8  C   UNL d   1      -2.402  -0.776   0.031  0.00  0.00     0.102 A 
ATOM      9  C   UNL d   1      -2.380   0.622   0.131  0.00  0.00     0.103 A 
ATOM     10  C   UNL d   1      -1.142   1.296   0.115  0.00  0.00     0.073 A 
ENDROOT
BRANCH   1  11
ATOM     11  N   UNL d   1       3.568   1.348   0.097  0.00  0.00    -0.211 N 
ATOM     12  C   UNL d   1       3.607   2.806   0.142  0.00  0.00     0.171 C 
ATOM     13  C   UNL d   1       4.600   3.246   1.244  0.00  0.00     0.290 C 
ATOM     14  N   UNL d   1       5.950   2.661   1.095  0.00  0.00     0.086 N 
ATOM     15  C   UNL d   1       5.845   1.189   1.006  0.00  0.00     0.290 C 
ATOM     16  H   UNL d   1       6.504   2.901   1.916  0.00  0.00     0.316 HD
ATOM     17  C   UNL d   1       4.861   0.693  -0.081  0.00  0.00     0.171 C 
ENDBRANCH   1  11
BRANCH   5  18
ATOM     18  N   UNL d   1       1.441  -2.748  -0.261  0.00  0.00    -0.286 NA
ATOM     19  H   UNL d   1       0.976  -3.217   0.507  0.00  0.00     0.125 HD
ATOM     20  H   UNL d   1       2.441  -2.934  -0.253  0.00  0.00     0.125 HD
ENDBRANCH   5  18
BRANCH   9  21
ATOM     21  O   UNL d   1      -3.439   1.484   0.256  0.00  0.00    -0.353 OA
ATOM     22  C   UNL d   1      -4.757   0.956   0.299  0.00  0.00     0.210 C 
ENDBRANCH   9  21
BRANCH   8  23
ATOM     23  O   UNL d   1      -3.604  -1.427   0.069  0.00  0.00    -0.353 OA
ATOM     24  C   UNL d   1      -3.611  -2.849   0.036  0.00  0.00     0.210 C 
ENDBRANCH   8  23
TORSDOF 4
