2LWK_0EC_A_101
 OpenBabel03221817253D

 40 42  0  0  0  0  0  0  0  0999 V2000
    2.3922    0.6583   -0.0241 C   0  0  0  0  0  0  0  0  0  0  0  0
    1.2287    1.3281    0.0516 N   0  0  0  0  0  0  0  0  0  0  0  0
    0.0790    0.6354    0.0197 C   0  0  0  0  0  0  0  0  0  0  0  0
    0.0506   -0.7496   -0.0849 C   0  0  0  0  0  0  0  0  0  0  0  0
    1.3007   -1.3563   -0.1610 C   0  0  0  0  0  0  0  0  0  0  0  0
    1.4413   -2.7481   -0.2613 N   0  0  0  0  0  0  0  0  0  0  0  0
    2.4494   -0.6755   -0.1413 N   0  0  0  0  0  0  0  0  0  0  0  0
   -1.1823   -1.4456   -0.0992 C   0  0  0  0  0  0  0  0  0  0  0  0
   -2.4023   -0.7764    0.0307 C   0  0  0  0  0  0  0  0  0  0  0  0
   -2.3796    0.6215    0.1313 C   0  0  0  0  0  0  0  0  0  0  0  0
   -1.1419    1.2955    0.1146 C   0  0  0  0  0  0  0  0  0  0  0  0
   -3.4390    1.4842    0.2563 O   0  0  0  0  0  0  0  0  0  0  0  0
   -4.7569    0.9555    0.2988 C   0  0  0  0  0  0  0  0  0  0  0  0
   -3.6039   -1.4266    0.0692 O   0  0  0  0  0  0  0  0  0  0  0  0
   -3.6108   -2.8487    0.0359 C   0  0  0  0  0  0  0  0  0  0  0  0
    3.5683    1.3481    0.0974 N   0  0  0  0  0  0  0  0  0  0  0  0
    3.6073    2.8058    0.1425 C   0  0  0  0  0  0  0  0  0  0  0  0
    4.6000    3.2464    1.2444 C   0  0  0  0  0  0  0  0  0  0  0  0
    5.9498    2.6606    1.0951 N   0  0  0  0  0  0  0  0  0  0  0  0
    5.8446    1.1892    1.0056 C   0  0  0  0  0  0  0  0  0  0  0  0
    4.8612    0.6926   -0.0810 C   0  0  0  0  0  0  0  0  0  0  0  0
    0.9755   -3.2166    0.5075 H   0  0  0  0  0  0  0  0  0  0  0  0
    2.4414   -2.9341   -0.2533 H   0  0  0  0  0  0  0  0  0  0  0  0
   -1.1487   -2.5239   -0.2134 H   0  0  0  0  0  0  0  0  0  0  0  0
   -1.1361    2.3817    0.1902 H   0  0  0  0  0  0  0  0  0  0  0  0
   -5.4475    1.7945    0.4298 H   0  0  0  0  0  0  0  0  0  0  0  0
   -4.8948    0.2935    1.1596 H   0  0  0  0  0  0  0  0  0  0  0  0
   -5.0184    0.4659   -0.6449 H   0  0  0  0  0  0  0  0  0  0  0  0
   -4.6363   -3.1820    0.2214 H   0  0  0  0  0  0  0  0  0  0  0  0
   -2.9826   -3.2776    0.8240 H   0  0  0  0  0  0  0  0  0  0  0  0
   -3.3118   -3.2113   -0.9527 H   0  0  0  0  0  0  0  0  0  0  0  0
    2.6344    3.2613    0.3555 H   0  0  0  0  0  0  0  0  0  0  0  0
    3.9398    3.1911   -0.8300 H   0  0  0  0  0  0  0  0  0  0  0  0
    4.1965    2.9649    2.2258 H   0  0  0  0  0  0  0  0  0  0  0  0
    4.6897    4.3377    1.2334 H   0  0  0  0  0  0  0  0  0  0  0  0
    6.5039    2.9006    1.9162 H   0  0  0  0  0  0  0  0  0  0  0  0
    5.5296    0.7958    1.9807 H   0  0  0  0  0  0  0  0  0  0  0  0
    6.8399    0.7796    0.8015 H   0  0  0  0  0  0  0  0  0  0  0  0
    4.8085   -0.3996   -0.0100 H   0  0  0  0  0  0  0  0  0  0  0  0
    5.2560    0.9327   -1.0763 H   0  0  0  0  0  0  0  0  0  0  0  0
  1  2  2  0  0  0  0
  1  7  1  0  0  0  0
  1 16  1  0  0  0  0
  2  3  1  0  0  0  0
  3  4  2  0  0  0  0
  3 11  1  0  0  0  0
  4  5  1  0  0  0  0
  4  8  1  0  0  0  0
  5  6  1  0  0  0  0
  5  7  2  0  0  0  0
  6 22  1  0  0  0  0
  6 23  1  0  0  0  0
  8  9  2  0  0  0  0
  8 24  1  0  0  0  0
  9 10  1  0  0  0  0
  9 14  1  0  0  0  0
 10 11  2  0  0  0  0
 10 12  1  0  0  0  0
 11 25  1  0  0  0  0
 12 13  1  0  0  0  0
 13 26  1  0  0  0  0
 13 27  1  0  0  0  0
 13 28  1  0  0  0  0
 14 15  1  0  0  0  0
 15 29  1  0  0  0  0
 15 30  1  0  0  0  0
 15 31  1  0  0  0  0
 16 17  1  0  0  0  0
 16 21  1  0  0  0  0
 17 18  1  0  0  0  0
 17 32  1  0  0  0  0
 17 33  1  0  0  0  0
 18 19  1  0  0  0  0
 18 34  1  0  0  0  0
 18 35  1  0  0  0  0
 19 20  1  0  0  0  0
 19 36  1  0  0  0  0
 20 21  1  0  0  0  0
 20 37  1  0  0  0  0
 20 38  1  0  0  0  0
 21 39  1  0  0  0  0
 21 40  1  0  0  0  0
M  END
$$$$
