@<TRIPOS>MOLECULE
3TZR_SS0_A_75
 53 55 0 0 0
SMALL
GASTEIGER

@<TRIPOS>ATOM
      1 C           5.2817    0.3065    1.3480 C.3     1  UNL1       -0.0130
      2 N           4.9481   -1.1062    1.4824 N.3     1  UNL1       -0.3083
      3 C           3.5899   -1.3259    1.9881 C.3     1  UNL1       -0.0001
      4 C           2.4632   -0.6798    1.1630 C.3     1  UNL1       -0.0221
      5 C           1.1502   -1.4585    1.3102 C.3     1  UNL1        0.0276
      6 N           0.8182   -2.2918    0.1571 N.ar    1  UNL1       -0.3117
      7 C           0.4968   -1.8275   -1.1124 C.ar    1  UNL1        0.0767
      8 C           0.5940   -2.9684   -1.9162 C.ar    1  UNL1        0.0914
      9 N           1.0818   -4.0335   -1.2112 N.ar    1  UNL1       -0.2146
     10 C           1.1668   -3.6289    0.0357 C.ar    1  UNL1        0.1940
     11 N           1.3379   -4.4125    1.1321 N.pl3   1  UNL1       -0.3288
     12 C           0.2795   -2.9117   -3.2846 C.ar    1  UNL1       -0.0307
     13 C          -0.2406   -1.7288   -3.8023 C.ar    1  UNL1       -0.0175
     14 C          -0.4261   -0.6324   -2.9645 C.ar    1  UNL1        0.1258
     15 O          -0.9992    0.4997   -3.5014 O.3     1  UNL1       -0.4913
     16 C          -1.9969    1.0343   -2.6150 C.3     1  UNL1        0.0939
     17 C          -1.5177    1.2760   -1.1643 C.3     1  UNL1        0.0101
     18 H          -1.4513    2.3648   -1.0268 H       1  UNL1        0.0349
     19 C          -0.1087    0.7196   -0.9272 C.3     1  UNL1       -0.0151
     20 C           0.0183   -0.6054   -1.6250 C.ar    1  UNL1        0.0203
     21 C          -2.5163    0.7050   -0.1236 C.3     1  UNL1        0.0045
     22 N          -3.1331    1.7741    0.6783 N.3     1  UNL1       -0.3080
     23 C          -4.4363    1.3392    1.1857 C.3     1  UNL1       -0.0130
     24 C          -2.2608    2.1355    1.8001 C.3     1  UNL1       -0.0130
     25 C           5.2124   -1.8696    0.2668 C.3     1  UNL1       -0.0130
     26 H           4.9816    0.8613    2.2435 H       1  UNL1        0.0391
     27 H           6.3643    0.4385    1.2419 H       1  UNL1        0.0391
     28 H           4.8011    0.7718    0.4796 H       1  UNL1        0.0391
     29 H           3.5316   -0.9595    3.0225 H       1  UNL1        0.0427
     30 H           3.4219   -2.4051    2.0600 H       1  UNL1        0.0427
     31 H           2.3144    0.3467    1.5251 H       1  UNL1        0.0295
     32 H           2.7417   -0.5845    0.1055 H       1  UNL1        0.0295
     33 H           0.2968   -0.8010    1.4937 H       1  UNL1        0.0493
     34 H           1.1710   -2.0980    2.1961 H       1  UNL1        0.0493
     35 H           1.6839   -5.3534    0.9510 H       1  UNL1        0.1451
     36 H           1.8664   -4.0248    1.9089 H       1  UNL1        0.1451
     37 H           0.3993   -3.7873   -3.9145 H       1  UNL1        0.0641
     38 H          -0.5419   -1.6882   -4.8453 H       1  UNL1        0.0655
     39 H          -2.3112    1.9934   -3.0454 H       1  UNL1        0.0700
     40 H          -2.8776    0.3825   -2.6662 H       1  UNL1        0.0700
     41 H           0.1097    0.6755    0.1362 H       1  UNL1        0.0319
     42 H           0.6371    1.3953   -1.3687 H       1  UNL1        0.0319
     43 H          -3.2925    0.1189   -0.6287 H       1  UNL1        0.0430
     44 H          -2.0200   -0.0171    0.5383 H       1  UNL1        0.0430
     45 H          -4.3622    0.3884    1.7277 H       1  UNL1        0.0391
     46 H          -5.1470    1.2144    0.3610 H       1  UNL1        0.0391
     47 H          -4.8657    2.0849    1.8648 H       1  UNL1        0.0391
     48 H          -1.2708    2.4319    1.4394 H       1  UNL1        0.0391
     49 H          -2.1388    1.3000    2.4990 H       1  UNL1        0.0391
     50 H          -2.6637    2.9920    2.3513 H       1  UNL1        0.0391
     51 H           4.9604   -2.9275    0.4124 H       1  UNL1        0.0391
     52 H           6.2742   -1.8311    0.0026 H       1  UNL1        0.0391
     53 H           4.6385   -1.5067   -0.5916 H       1  UNL1        0.0391
@<TRIPOS>BOND
     1     2     1    1
     2     3     2    1
     3     4     3    1
     4     5     4    1
     5     6     5    1
     6     7     6   ar
     7     8     7   ar
     8     9     8   ar
     9    10     9   ar
    10    10     6   ar
    11    11    10    1
    12    12     8   ar
    13    13    12   ar
    14    14    13   ar
    15    15    14    1
    16    16    15    1
    17    17    16    1
    18    17    18    1
    19    19    17    1
    20    20    19    1
    21    20     7   ar
    22    20    14   ar
    23    21    17    1
    24    22    21    1
    25    23    22    1
    26    24    22    1
    27    25     2    1
    28     1    26    1
    29     1    27    1
    30     1    28    1
    31     3    29    1
    32     3    30    1
    33     4    31    1
    34     4    32    1
    35     5    33    1
    36     5    34    1
    37    11    35    1
    38    11    36    1
    39    12    37    1
    40    13    38    1
    41    16    39    1
    42    16    40    1
    43    19    41    1
    44    19    42    1
    45    21    43    1
    46    21    44    1
    47    23    45    1
    48    23    46    1
    49    23    47    1
    50    24    48    1
    51    24    49    1
    52    24    50    1
    53    25    51    1
    54    25    52    1
    55    25    53    1
