REMARK  7 active torsions:
REMARK  status: ('A' for Active; 'I' for Inactive)
REMARK    1  A    between atoms: C_3  and  N_2 
REMARK    2  A    between atoms: C_4  and  C_3 
REMARK    3  A    between atoms: C_5  and  C_4 
REMARK    4  A    between atoms: N_6  and  C_5 
REMARK    5  A    between atoms: N_11  and  C_10 
REMARK    6  A    between atoms: C_20  and  C_17 
REMARK    7  A    between atoms: N_21  and  C_20 
ROOT
ATOM      1  N   UNL d   1       0.818  -2.292   0.157  0.00  0.00    -0.320 N 
ATOM      2  C   UNL d   1       0.497  -1.827  -1.112  0.00  0.00     0.075 A 
ATOM      3  C   UNL d   1       0.594  -2.968  -1.916  0.00  0.00     0.087 A 
ATOM      4  N   UNL d   1       1.082  -4.034  -1.211  0.00  0.00    -0.218 NA
ATOM      5  C   UNL d   1       1.167  -3.629   0.036  0.00  0.00     0.180 A 
ATOM      6  C   UNL d   1       0.280  -2.912  -3.285  0.00  0.00     0.037 C 
ATOM      7  C   UNL d   1      -0.241  -1.729  -3.802  0.00  0.00     0.040 C 
ATOM      8  C   UNL d   1      -0.426  -0.632  -2.965  0.00  0.00     0.077 C 
ATOM      9  O   UNL d   1      -0.999   0.500  -3.501  0.00  0.00    -0.350 OA
ATOM     10  C   UNL d   1      -1.997   1.034  -2.615  0.00  0.00     0.182 C 
ATOM     11  C   UNL d   1      -1.518   1.276  -1.164  0.00  0.00     0.043 C 
ATOM     12  C   UNL d   1      -0.109   0.720  -0.927  0.00  0.00     0.052 C 
ATOM     13  C   UNL d   1       0.018  -0.605  -1.625  0.00  0.00     0.005 C 
ENDROOT
BRANCH   1  14
ATOM     14  C   UNL d   1       1.150  -1.458   1.310  0.00  0.00     0.133 C 
BRANCH  14  15
ATOM     15  C   UNL d   1       2.463  -0.680   1.163  0.00  0.00     0.050 C 
BRANCH  15  16
ATOM     16  C   UNL d   1       3.590  -1.326   1.988  0.00  0.00     0.273 C 
BRANCH  16  17
ATOM     17  N   UNL d   1       4.948  -1.106   1.482  0.00  0.00     0.080 N 
ATOM     18  C   UNL d   1       5.282   0.306   1.348  0.00  0.00     0.309 C 
ATOM     19  C   UNL d   1       5.212  -1.870   0.267  0.00  0.00     0.309 C 
ENDBRANCH  16  17
ENDBRANCH  15  16
ENDBRANCH  14  15
ENDBRANCH   1  14
BRANCH   5  20
ATOM     20  N   UNL d   1       1.338  -4.412   1.132  0.00  0.00    -0.272 NA
ATOM     21  H   UNL d   1       1.684  -5.353   0.951  0.00  0.00     0.127 HD
ATOM     22  H   UNL d   1       1.866  -4.025   1.909  0.00  0.00     0.127 HD
ENDBRANCH   5  20
BRANCH  11  23
ATOM     23  C   UNL d   1      -2.516   0.705  -0.124  0.00  0.00     0.278 C 
BRANCH  23  24
ATOM     24  N   UNL d   1      -3.133   1.774   0.678  0.00  0.00     0.080 N 
ATOM     25  C   UNL d   1      -4.436   1.339   1.186  0.00  0.00     0.309 C 
ATOM     26  C   UNL d   1      -2.261   2.135   1.800  0.00  0.00     0.309 C 
ENDBRANCH  23  24
ENDBRANCH  11  23
TORSDOF 7
