5BWS_V71_B_100
 OpenBabel10091713583D
Coordinates from PDB:5BWS:B:100 Model:1 without hydrogens
 47 48  0  0  1  0  0  0  0  0999 V2000
   -6.5880   -0.8710   -0.5930 C   0  0  1  0  0  0  0  0  0  0  0  0
   -4.6770    0.0780    0.7630 C   0  0  1  0  0  0  0  0  0  0  0  0
   -5.1510    1.4980    1.3070 C   0  0  1  0  0  0  0  0  0  0  0  0
   -3.8510    2.3940    1.5360 C   0  0  2  0  0  0  0  0  0  0  0  0
   -8.0460   -1.3540   -0.2310 C   0  0  1  0  0  0  0  0  0  0  0  0
   -7.9410   -2.7610    0.3900 C   0  0  2  0  0  0  0  0  0  0  0  0
   -7.3340   -3.7590   -0.6120 C   0  0  2  0  0  0  0  0  0  0  0  0
   -5.8870   -3.3220   -1.0450 C   0  0  1  0  0  0  0  0  0  0  0  0
   -5.2910   -4.2980   -2.1000 C   0  0  0  0  0  0  0  0  0  0  0  0
   -2.9220    1.7010    2.6580 C   0  0  1  0  0  0  0  0  0  0  0  0
   -2.4650    0.2710    2.0750 C   0  0  0  0  0  0  0  0  0  0  0  0
   -3.7520   -0.6350    1.8000 C   0  0  2  0  0  0  0  0  0  0  0  0
   -8.1820   -3.8510   -1.8060 F   0  0  0  0  0  0  0  0  0  0  0  0
   -8.6380   -0.3520    0.7380 N   0  0  0  0  0  0  0  0  0  0  0  0
   -3.9960   -3.9610   -2.5560 N   0  0  0  0  0  0  0  0  0  0  0  0
   -1.6730    2.5020    2.8970 N   0  0  0  0  0  0  0  0  0  0  0  0
   -3.3260   -1.9440    1.2640 N   0  0  0  0  0  0  0  0  0  0  0  0
   -5.8000   -0.7640    0.5510 O   0  0  0  0  0  0  0  0  0  0  0  0
   -6.0090    2.1200    0.2710 O   0  0  0  0  0  0  0  0  0  0  0  0
   -4.2930    3.6340    2.0030 O   0  0  0  0  0  0  0  0  0  0  0  0
   -9.0050   -3.1120    0.6510 O   0  0  0  0  0  0  0  0  0  0  0  0
   -6.0000   -1.8810   -1.5750 O   0  0  0  0  0  0  0  0  0  0  0  0
   -6.6173    0.1018   -1.0376 H   0  0  0  0  0  0  0  0  0  0  0  0
   -4.1470    0.2469   -0.1510 H   0  0  0  0  0  0  0  0  0  0  0  0
   -5.6959    1.4063    2.2233 H   0  0  0  0  0  0  0  0  0  0  0  0
   -3.2856    2.4993    0.6337 H   0  0  0  0  0  0  0  0  0  0  0  0
   -8.6811   -1.4121   -1.0902 H   0  0  0  0  0  0  0  0  0  0  0  0
   -7.3141   -2.7182    1.2561 H   0  0  0  0  0  0  0  0  0  0  0  0
   -7.2766   -4.7119   -0.1288 H   0  0  0  0  0  0  0  0  0  0  0  0
   -5.2101   -3.3561   -0.2170 H   0  0  0  0  0  0  0  0  0  0  0  0
   -5.2463   -5.2736   -1.6628 H   0  0  0  0  0  0  0  0  0  0  0  0
   -5.9334   -4.2465   -2.9541 H   0  0  0  0  0  0  0  0  0  0  0  0
   -3.4710    1.6250    3.5733 H   0  0  0  0  0  0  0  0  0  0  0  0
   -1.9292    0.4147    1.1600 H   0  0  0  0  0  0  0  0  0  0  0  0
   -1.8341   -0.2171    2.7882 H   0  0  0  0  0  0  0  0  0  0  0  0
   -4.2885   -0.7820    2.7140 H   0  0  0  0  0  0  0  0  0  0  0  0
   -8.0430   -0.2852    1.5638 H   0  0  0  0  0  0  0  0  0  0  0  0
   -9.5710   -0.6572    1.0150 H   0  0  0  0  0  0  0  0  0  0  0  0
   -3.3409   -3.9953   -1.7750 H   0  0  0  0  0  0  0  0  0  0  0  0
   -4.0080   -3.0196   -2.9485 H   0  0  0  0  0  0  0  0  0  0  0  0
   -1.1458    2.5775    2.0271 H   0  0  0  0  0  0  0  0  0  0  0  0
   -1.1008    2.0374    3.6021 H   0  0  0  0  0  0  0  0  0  0  0  0
   -2.8145   -1.8044    0.3926 H   0  0  0  0  0  0  0  0  0  0  0  0
   -4.1472   -2.5226    1.0873 H   0  0  0  0  0  0  0  0  0  0  0  0
   -5.5097    2.2004   -0.5567 H   0  0  0  0  0  0  0  0  0  0  0  0
   -4.8014    3.5094    2.8197 H   0  0  0  0  0  0  0  0  0  0  0  0
   -9.5435   -3.1388   -0.1553 H   0  0  0  0  0  0  0  0  0  0  0  0
  1  5  1  0  0  0  0
  1 18  1  0  0  0  0
  1 23  1  6  0  0  0
  2  3  1  0  0  0  0
  2 12  1  0  0  0  0
  2 24  1  6  0  0  0
  3  4  1  0  0  0  0
  3 25  1  1  0  0  0
  4 20  1  0  0  0  0
  4 10  1  0  0  0  0
  4 26  1  6  0  0  0
  5  6  1  0  0  0  0
  5 14  1  0  0  0  0
  5 27  1  6  0  0  0
  6 21  1  0  0  0  0
  6 28  1  1  0  0  0
  7  6  1  0  0  0  0
  7 29  1  1  0  0  0
  8  7  1  0  0  0  0
  8 30  1  1  0  0  0
  9  8  1  0  0  0  0
  9 31  1  0  0  0  0
  9 32  1  0  0  0  0
 10 16  1  0  0  0  0
 10 33  1  1  0  0  0
 11 10  1  0  0  0  0
 11 34  1  0  0  0  0
 11 35  1  0  0  0  0
 12 11  1  0  0  0  0
 12 36  1  1  0  0  0
 13  7  1  0  0  0  0
 14 37  1  0  0  0  0
 14 38  1  0  0  0  0
 15  9  1  0  0  0  0
 15 39  1  0  0  0  0
 15 40  1  0  0  0  0
 16 41  1  0  0  0  0
 16 42  1  0  0  0  0
 17 12  1  0  0  0  0
 17 43  1  0  0  0  0
 17 44  1  0  0  0  0
 18  2  1  0  0  0  0
 19  3  1  0  0  0  0
 19 45  1  0  0  0  0
 20 46  1  0  0  0  0
 21 47  1  0  0  0  0
 22  8  1  0  0  0  0
 22  1  1  0  0  0  0
M  END
$$$$
