@<TRIPOS>MOLECULE
5BWS_V71_B_100
 22 23 0 0 0
SMALL
GASTEIGER
****
Coordinates from PDB:5BWS:B:100 Model:1 without hydrogens
@<TRIPOS>ATOM
      1 C          -6.5880   -0.8710   -0.5930 C.3     1  UNL1        0.2561
      2 C          -4.6770    0.0780    0.7630 C.3     1  UNL1        0.1681
      3 C          -5.1510    1.4980    1.3070 C.3     1  UNL1        0.2119
      4 C          -3.8510    2.3940    1.5360 C.3     1  UNL1        0.2020
      5 C          -8.0460   -1.3540   -0.2310 C.3     1  UNL1        0.1809
      6 C          -7.9410   -2.7610    0.3900 C.3     1  UNL1        0.2092
      7 C          -7.3340   -3.7590   -0.6120 C.3     1  UNL1        0.2211
      8 C          -5.8870   -3.3220   -1.0450 C.3     1  UNL1        0.1717
      9 C          -5.2910   -4.2980   -2.1000 C.3     1  UNL1        0.1417
     10 C          -2.9220    1.7010    2.6580 C.3     1  UNL1        0.1262
     11 C          -2.4650    0.2710    2.0750 C.3     1  UNL1        0.0433
     12 C          -3.7520   -0.6350    1.8000 C.3     1  UNL1        0.1231
     13 F          -8.1820   -3.8510   -1.8060 F       1  UNL1       -0.2318
     14 N          -8.6380   -0.3520    0.7380 N.3     1  UNL1       -0.1248
     15 N          -3.9960   -3.9610   -2.5560 N.3     1  UNL1       -0.1286
     16 N          -1.6730    2.5020    2.8970 N.3     1  UNL1       -0.1301
     17 N          -3.3260   -1.9440    1.2640 N.3     1  UNL1       -0.1302
     18 O          -5.8000   -0.7640    0.5510 O.3     1  UNL1       -0.3277
     19 O          -6.0090    2.1200    0.2710 O.3     1  UNL1       -0.2177
     20 O          -4.2930    3.6340    2.0030 O.3     1  UNL1       -0.2188
     21 O          -9.0050   -3.1120    0.6510 O.3     1  UNL1       -0.2184
     22 O          -6.0000   -1.8810   -1.5750 O.3     1  UNL1       -0.3274
@<TRIPOS>BOND
     1     1     5    1
     2     1    18    1
     3     2    18    1
     4     2     3    1
     5     2    12    1
     6     3    19    1
     7     3     4    1
     8     4    20    1
     9     4    10    1
    10     5     6    1
    11     5    14    1
    12     6    21    1
    13     7    13    1
    14     7     6    1
    15     8     9    1
    16     8     7    1
    17    10    16    1
    18    11    10    1
    19    12    17    1
    20    12    11    1
    21    15     9    1
    22    22     8    1
    23    22     1    1
