REMARK  3 active torsions:
REMARK  status: ('A' for Active; 'I' for Inactive)
REMARK    1  A    between atoms: C_1  and  O_18 
REMARK    2  A    between atoms: C_2  and  O_18 
REMARK    3  A    between atoms: C_8  and  C_9 
ROOT
ATOM      1  C   UNL d   1      -6.588  -0.871  -0.593  0.00  0.00     0.281 C 
ATOM      2  C   UNL d   1      -8.046  -1.354  -0.231  0.00  0.00     0.416 C 
ATOM      3  C   UNL d   1      -7.941  -2.761   0.390  0.00  0.00     0.227 C 
ATOM      4  C   UNL d   1      -7.334  -3.759  -0.612  0.00  0.00     0.249 C 
ATOM      5  C   UNL d   1      -5.887  -3.322  -1.045  0.00  0.00     0.197 C 
ATOM      6  F   UNL d   1      -8.182  -3.851  -1.806  0.00  0.00    -0.227 F 
ATOM      7  N   UNL d   1      -8.638  -0.352   0.738  0.00  0.00     0.630 N 
ATOM      8  O   UNL d   1      -9.005  -3.112   0.651  0.00  0.00    -0.291 OA
ATOM      9  O   UNL d   1      -6.000  -1.881  -1.575  0.00  0.00    -0.326 OA
ENDROOT
BRANCH   1  10
ATOM     10  O   UNL d   1      -5.800  -0.764   0.551  0.00  0.00    -0.327 OA
BRANCH  10  11
ATOM     11  C   UNL d   1      -4.677   0.078   0.763  0.00  0.00     0.188 C 
ATOM     12  C   UNL d   1      -5.151   1.498   1.307  0.00  0.00     0.214 C 
ATOM     13  O   UNL d   1      -6.009   2.120   0.271  0.00  0.00    -0.218 OA
ATOM     14  C   UNL d   1      -3.851   2.394   1.536  0.00  0.00     0.222 C 
ATOM     15  O   UNL d   1      -4.293   3.634   2.003  0.00  0.00    -0.218 OA
ATOM     16  C   UNL d   1      -2.922   1.701   2.658  0.00  0.00     0.337 C 
ATOM     17  N   UNL d   1      -1.673   2.502   2.897  0.00  0.00     0.619 N 
ATOM     18  C   UNL d   1      -2.465   0.271   2.075  0.00  0.00     0.084 C 
ATOM     19  C   UNL d   1      -3.752  -0.635   1.800  0.00  0.00     0.334 C 
ATOM     20  N   UNL d   1      -3.326  -1.944   1.264  0.00  0.00     0.619 N 
ENDBRANCH  10  11
ENDBRANCH   1  10
BRANCH   5  21
ATOM     21  C   UNL d   1      -5.291  -4.298  -2.100  0.00  0.00     0.371 C 
ATOM     22  N   UNL d   1      -3.996  -3.961  -2.556  0.00  0.00     0.621 N 
ENDBRANCH   5  21
TORSDOF 3
