5BWS_V71_B_100
 OpenBabel10091713583D
Coordinates from PDB:5BWS:B:100 Model:1 without hydrogens
 22 23  0  0  0  0  0  0  0  0999 V2000
   -6.5880   -0.8710   -0.5930 C   0  0  1  0  0  0  0  0  0  0  0  0
   -4.6770    0.0780    0.7630 C   0  0  1  0  0  0  0  0  0  0  0  0
   -5.1510    1.4980    1.3070 C   0  0  1  0  0  0  0  0  0  0  0  0
   -3.8510    2.3940    1.5360 C   0  0  2  0  0  0  0  0  0  0  0  0
   -8.0460   -1.3540   -0.2310 C   0  0  1  0  0  0  0  0  0  0  0  0
   -7.9410   -2.7610    0.3900 C   0  0  2  0  0  0  0  0  0  0  0  0
   -7.3340   -3.7590   -0.6120 C   0  0  2  0  0  0  0  0  0  0  0  0
   -5.8870   -3.3220   -1.0450 C   0  0  1  0  0  0  0  0  0  0  0  0
   -5.2910   -4.2980   -2.1000 C   0  0  0  0  0  0  0  0  0  0  0  0
   -2.9220    1.7010    2.6580 C   0  0  1  0  0  0  0  0  0  0  0  0
   -2.4650    0.2710    2.0750 C   0  0  0  0  0  0  0  0  0  0  0  0
   -3.7520   -0.6350    1.8000 C   0  0  2  0  0  0  0  0  0  0  0  0
   -8.1820   -3.8510   -1.8060 F   0  0  0  0  0  0  0  0  0  0  0  0
   -8.6380   -0.3520    0.7380 N   0  0  0  0  0  0  0  0  0  0  0  0
   -3.9960   -3.9610   -2.5560 N   0  0  0  0  0  0  0  0  0  0  0  0
   -1.6730    2.5020    2.8970 N   0  0  0  0  0  0  0  0  0  0  0  0
   -3.3260   -1.9440    1.2640 N   0  0  0  0  0  0  0  0  0  0  0  0
   -5.8000   -0.7640    0.5510 O   0  0  0  0  0  0  0  0  0  0  0  0
   -6.0090    2.1200    0.2710 O   0  0  0  0  0  0  0  0  0  0  0  0
   -4.2930    3.6340    2.0030 O   0  0  0  0  0  0  0  0  0  0  0  0
   -9.0050   -3.1120    0.6510 O   0  0  0  0  0  0  0  0  0  0  0  0
   -6.0000   -1.8810   -1.5750 O   0  0  0  0  0  0  0  0  0  0  0  0
  1  5  1  0  0  0  0
  1 18  1  1  0  0  0
  2 18  1  1  0  0  0
  2  3  1  0  0  0  0
  2 12  1  0  0  0  0
  3 19  1  6  0  0  0
  3  4  1  0  0  0  0
  4 20  1  1  0  0  0
  4 10  1  0  0  0  0
  5  6  1  0  0  0  0
  5 14  1  1  0  0  0
  6 21  1  6  0  0  0
  7 13  1  6  0  0  0
  7  6  1  0  0  0  0
  8  9  1  6  0  0  0
  8  7  1  0  0  0  0
 10 16  1  6  0  0  0
 11 10  1  0  0  0  0
 12 17  1  6  0  0  0
 12 11  1  0  0  0  0
 15  9  1  0  0  0  0
 22  8  1  0  0  0  0
 22  1  1  0  0  0  0
A    1
C1
A    2
C10
A    3
C11
A    4
C12
A    5
C2
A    6
C3
A    7
C4
A    8
C5
A    9
C6
A   10
C7
A   11
C8
A   12
C9
A   13
F99
A   14
N2
A   15
N6
A   16
N7
A   17
N9
A   18
O1
A   19
O11
A   20
O12
A   21
O23
A   22
O5
M  END
>  <InstanceId>
5BWS_V71_B_100

>  <ChemCompId>
V71

>  <PdbId>
5BWS

>  <ChainId>
B

>  <ResidueNumber>
100

>  <InsertionCode>


>  <Model>
1

>  <AltIds>


>  <MissingHeavyAtoms>
0

>  <ObservedFormula>
C12 N4 O5 F

>  <Name>
(1R,2R,3S,4R,6S)-4,6-diamino-2,3-dihydroxycyclohexyl 2,6-diamino-2,4,6-trideoxy-4-fluoro-alpha-D-galactopyranoside

>  <SystematicName>
(1S,2R,3R,4S,6R)-3-[(2S,3R,4R,5R,6R)-6-(aminomethyl)-3-azanyl-5-fluoranyl-4-oxidanyl-oxan-2-yl]oxy-4,6-bis(azanyl)cyclohexane-1,2-diol

>  <Synonyms>


>  <Type>
NON-POLYMER

>  <Formula>
C12 H25 F N4 O5

>  <MolecularWeight>
324.349

>  <ModifiedDate>
2016-06-17

>  <Parent>


>  <OneLetterCode>


>  <SubcomponentList>


>  <AmbiguousFlag>
N

>  <InChI>
InChI=1S/C12H25FN4O5/c13-6-5(2-14)21-12(7(17)9(6)19)22-11-4(16)1-3(15)8(18)10(11)20/h3-12,18-20H,1-2,14-17H2/t3-,4+,5-,6+,7-,8+,9+,10-,11-,12-/m1/s1

>  <InChIKey>
CRXNRBKQEXVRGM-RMDUJVAESA-N

>  <SMILES>
C1[C@H]([C@@H]([C@H]([C@@H]([C@H]1N)O[C@@H]2[C@@H]([C@H]([C@H]([C@H](O2)CN)F)O)N)O)O)N

$$$$
