@<TRIPOS>MOLECULE
ligand.pdb
 54 56 0 0 0
SMALL
GASTEIGER

@<TRIPOS>ATOM
      1 N           1.7567   -1.5859   -1.5269 N.am    1  UNL1        0.0423
      2 C           2.0293   -1.2851   -0.2940 C.2     1  UNL1        0.3194
      3 C           3.4469   -1.1675    0.2296 C.3     1  UNL1        0.2271
      4 H           3.5797   -1.8024    1.1103 H       1  UNL1        0.0768
      5 C           4.4679   -1.5595   -0.8068 C.2     1  UNL1        0.2585
      6 O           5.4422   -2.2660   -0.5630 O.2     1  UNL1       -0.2723
      7 N           4.0283   -1.2608   -2.0821 N.am    1  UNL1       -0.2142
      8 C           2.7680   -1.7133   -2.4539 C.2     1  UNL1        0.4398
      9 O           2.5603   -2.1640   -3.5810 O.2     1  UNL1       -0.2192
     10 N           3.7022    0.2319    0.5755 N.2     1  UNL1       -0.2590
     11 C           2.7019    0.9688    0.9391 C.2     1  UNL1        0.0842
     12 C           2.9203    2.4308    1.1190 C.2     1  UNL1       -0.0333
     13 C           1.9949    3.2469    0.5763 C.2     1  UNL1       -0.0459
     14 C           2.2054    4.7327    0.6779 C.3     1  UNL1       -0.0394
     15 C           0.8523    2.6673   -0.1471 C.2     1  UNL1       -0.0472
     16 C           0.4523    1.4078    0.1361 C.2     1  UNL1       -0.0326
     17 C           1.2386    0.5102    1.0673 C.3     1  UNL1        0.1516
     18 H           0.9016    0.6659    2.1009 H       1  UNL1        0.0877
     19 N           1.0922   -0.8878    0.6455 N.pl3   1  UNL1       -0.2091
     20 C           0.6621   -1.8491    1.6709 C.3     1  UNL1        0.1095
     21 C          -0.8308   -2.1913    1.5193 C.3     1  UNL1        0.1192
     22 H          -1.4278   -1.3538    1.8971 H       1  UNL1        0.0658
     23 O          -1.1745   -2.3520    0.1444 O.3     1  UNL1       -0.3854
     24 C          -1.1662   -3.4778    2.3123 C.3     1  UNL1        0.1125
     25 H          -0.3075   -4.1585    2.2434 H       1  UNL1        0.0647
     26 O          -1.2805   -3.1463    3.6978 O.3     1  UNL1       -0.3865
     27 C          -2.4142   -4.2518    1.8351 C.3     1  UNL1        0.1074
     28 H          -2.4729   -4.2557    0.7390 H       1  UNL1        0.0643
     29 O          -2.2647   -5.6199    2.2368 O.3     1  UNL1       -0.3868
     30 C          -3.7241   -3.7342    2.4201 C.3     1  UNL1        0.0875
     31 O          -4.8251   -4.4745    1.9045 O.3     1  UNL1       -0.2841
     32 P          -5.5265   -4.0083    0.5220 P.3     1  UNL1        0.4724
     33 O          -5.5936   -2.5338    0.2629 O.2     1  UNL1       -0.2275
     34 O          -4.7396   -4.8590   -0.6046 O.3     1  UNL1       -0.3026
     35 O          -6.9627   -4.7487    0.5827 O.3     1  UNL1       -0.3026
     36 C          -0.0830    3.5576   -0.9398 C.3     1  UNL1       -0.0396
     37 H           4.7408   -1.2586   -2.8087 H       1  UNL1        0.1614
     38 H           3.8309    2.7785    1.5922 H       1  UNL1        0.0639
     39 H           2.3122    5.0275    1.7311 H       1  UNL1        0.0278
     40 H           1.3903    5.3274    0.2596 H       1  UNL1        0.0278
     41 H           3.1208    5.0135    0.1434 H       1  UNL1        0.0278
     42 H          -0.2029    0.9101   -0.5856 H       1  UNL1        0.0619
     43 H           0.8548   -1.4569    2.6810 H       1  UNL1        0.0753
     44 H           1.2677   -2.7603    1.5750 H       1  UNL1        0.0753
     45 H          -0.3594   -2.4707   -0.3732 H       1  UNL1        0.2101
     46 H          -1.9704   -2.4671    3.7868 H       1  UNL1        0.2100
     47 H          -1.5054   -5.9809    1.7468 H       1  UNL1        0.2100
     48 H          -3.7566   -3.8596    3.5078 H       1  UNL1        0.0592
     49 H          -3.8623   -2.6711    2.2008 H       1  UNL1        0.0592
     50 H          -5.2438   -5.3841   -1.2622 H       1  UNL1        0.2220
     51 H          -7.6809   -4.3393    1.1072 H       1  UNL1        0.2220
     52 H           0.4204    3.8806   -1.8602 H       1  UNL1        0.0278
     53 H          -0.9958    3.0261   -1.2356 H       1  UNL1        0.0278
     54 H          -0.4040    4.4353   -0.3709 H       1  UNL1        0.0278
@<TRIPOS>BOND
     1     2     1    2
     2     3     2    1
     3     3     4    1
     4     5     3    1
     5     6     5    2
     6     7     5   am
     7     8     7   am
     8     8     1    1
     9     9     8    2
    10    10     3    1
    11    11    10    2
    12    12    11    1
    13    13    12    2
    14    14    13    1
    15    15    13    1
    16    16    15    2
    17    17    16    1
    18    17    18    1
    19    17    11    1
    20    19    17    1
    21    19     2    1
    22    20    19    1
    23    21    20    1
    24    21    22    1
    25    23    21    1
    26    24    21    1
    27    24    25    1
    28    26    24    1
    29    27    24    1
    30    27    28    1
    31    29    27    1
    32    30    27    1
    33    31    30    1
    34    32    31    1
    35    33    32    2
    36    34    32    1
    37    35    32    1
    38    36    15    1
    39     7    37    1
    40    12    38    1
    41    14    39    1
    42    14    40    1
    43    14    41    1
    44    16    42    1
    45    20    43    1
    46    20    44    1
    47    23    45    1
    48    26    46    1
    49    29    47    1
    50    30    48    1
    51    30    49    1
    52    34    50    1
    53    35    51    1
    54    36    52    1
    55    36    53    1
    56    36    54    1
