REMARK  12 active torsions:
REMARK  status: ('A' for Active; 'I' for Inactive)
REMARK    1  A    between atoms: C_18  and  N_17 
REMARK    2  A    between atoms: C_19  and  C_18 
REMARK    3  A    between atoms: O_20  and  C_19 
REMARK    4  A    between atoms: C_21  and  C_19 
REMARK    5  A    between atoms: O_22  and  C_21 
REMARK    6  A    between atoms: C_23  and  C_21 
REMARK    7  A    between atoms: O_24  and  C_23 
REMARK    8  A    between atoms: C_25  and  C_23 
REMARK    9  A    between atoms: O_26  and  C_25 
REMARK   10  A    between atoms: P_27  and  O_26 
REMARK   11  A    between atoms: O_29  and  P_27 
REMARK   12  A    between atoms: O_30  and  P_27 
ROOT
ATOM      1  N   UNL d   1       1.757  -1.586  -1.527  0.00  0.00    -0.178 NA
ATOM      2  C   UNL d   1       2.029  -1.285  -0.294  0.00  0.00     0.142 C 
ATOM      3  C   UNL d   1       3.447  -1.167   0.230  0.00  0.00     0.269 C 
ATOM      4  C   UNL d   1       4.468  -1.560  -0.807  0.00  0.00     0.258 C 
ATOM      5  O   UNL d   1       5.442  -2.266  -0.563  0.00  0.00    -0.270 OA
ATOM      6  N   UNL d   1       4.028  -1.261  -2.082  0.00  0.00    -0.275 N 
ATOM      7  C   UNL d   1       2.768  -1.713  -2.454  0.00  0.00     0.350 C 
ATOM      8  O   UNL d   1       2.560  -2.164  -3.581  0.00  0.00    -0.244 OA
ATOM      9  N   UNL d   1       3.702   0.232   0.576  0.00  0.00    -0.269 NA
ATOM     10  C   UNL d   1       2.702   0.969   0.939  0.00  0.00     0.057 C 
ATOM     11  C   UNL d   1       2.920   2.431   1.119  0.00  0.00     0.036 C 
ATOM     12  C   UNL d   1       1.995   3.247   0.576  0.00  0.00    -0.054 C 
ATOM     13  C   UNL d   1       2.205   4.733   0.678  0.00  0.00     0.049 C 
ATOM     14  C   UNL d   1       0.852   2.667  -0.147  0.00  0.00    -0.057 C 
ATOM     15  C   UNL d   1       0.452   1.408   0.136  0.00  0.00     0.012 C 
ATOM     16  C   UNL d   1       1.239   0.510   1.067  0.00  0.00     0.161 C 
ATOM     17  N   UNL d   1       1.092  -0.888   0.645  0.00  0.00    -0.351 N 
ATOM     18  C   UNL d   1      -0.083   3.558  -0.940  0.00  0.00     0.048 C 
ATOM     19  H   UNL d   1       4.741  -1.259  -2.809  0.00  0.00     0.173 HD
ENDROOT
BRANCH  17  20
ATOM     20  C   UNL d   1       0.662  -1.849   1.671  0.00  0.00     0.159 C 
BRANCH  20  21
ATOM     21  C   UNL d   1      -0.831  -2.191   1.519  0.00  0.00     0.167 C 
BRANCH  21  22
ATOM     22  O   UNL d   1      -1.175  -2.352   0.144  0.00  0.00    -0.391 OA
ATOM     23  H   UNL d   1      -0.359  -2.471  -0.373  0.00  0.00     0.210 HD
ENDBRANCH  21  22
BRANCH  21  24
ATOM     24  C   UNL d   1      -1.166  -3.478   2.312  0.00  0.00     0.179 C 
BRANCH  24  25
ATOM     25  O   UNL d   1      -1.280  -3.146   3.698  0.00  0.00    -0.390 OA
ATOM     26  H   UNL d   1      -1.970  -2.467   3.787  0.00  0.00     0.210 HD
ENDBRANCH  24  25
BRANCH  24  27
ATOM     27  C   UNL d   1      -2.414  -4.252   1.835  0.00  0.00     0.173 C 
BRANCH  27  28
ATOM     28  O   UNL d   1      -2.265  -5.620   2.237  0.00  0.00    -0.391 OA
ATOM     29  H   UNL d   1      -1.505  -5.981   1.747  0.00  0.00     0.210 HD
ENDBRANCH  27  28
BRANCH  27  30
ATOM     30  C   UNL d   1      -3.724  -3.734   2.420  0.00  0.00     0.214 C 
BRANCH  30  31
ATOM     31  O   UNL d   1      -4.825  -4.474   1.905  0.00  0.00    -0.294 OA
BRANCH  31  32
ATOM     32  P   UNL d   1      -5.527  -4.008   0.522  0.00  0.00     0.390 P 
ATOM     33  O   UNL d   1      -5.594  -2.534   0.263  0.00  0.00    -0.632 OA
BRANCH  32  34
ATOM     34  O   UNL d   1      -4.740  -4.859  -0.605  0.00  0.00    -0.307 OA
ATOM     35  H   UNL d   1      -5.244  -5.384  -1.262  0.00  0.00     0.222 HD
ENDBRANCH  32  34
BRANCH  32  36
ATOM     36  O   UNL d   1      -6.963  -4.749   0.583  0.00  0.00    -0.307 OA
ATOM     37  H   UNL d   1      -7.681  -4.339   1.107  0.00  0.00     0.222 HD
ENDBRANCH  32  36
ENDBRANCH  31  32
ENDBRANCH  30  31
ENDBRANCH  27  30
ENDBRANCH  24  27
ENDBRANCH  21  24
ENDBRANCH  20  21
ENDBRANCH  17  20
TORSDOF 12
