@<TRIPOS>MOLECULE
4YAZ_4BW_R_106
 69 75 0 0 0
SMALL
GASTEIGER

@<TRIPOS>ATOM
      1 O           2.6832    1.2413  -11.5730 O.2     1  UNL1       -0.2654
      2 C           1.5085    0.9036  -11.6286 C.ar    1  UNL1        0.2803
      3 N           0.4871    1.6277  -12.2564 N.ar    1  UNL1       -0.2934
      4 H           0.7451    2.4960  -12.7162 H       1  UNL1        0.1716
      5 C          -0.8457    1.1856  -12.4080 C.ar    1  UNL1        0.1950
      6 N          -1.6717    2.0416  -13.1081 N.pl3   1  UNL1       -0.3289
      7 N          -1.2845    0.0610  -11.8891 N.ar    1  UNL1       -0.1963
      8 C          -0.3341   -0.6220  -11.2036 C.ar    1  UNL1        0.1712
      9 C           0.9978   -0.3139  -11.0602 C.ar    1  UNL1        0.1721
     10 N           1.6818   -1.3008  -10.4201 N.ar    1  UNL1       -0.2286
     11 C           0.7364   -2.1317  -10.0243 C.ar    1  UNL1        0.1005
     12 N          -0.4845   -1.8556  -10.6108 N.ar    1  UNL1       -0.2854
     13 C          -1.7742   -2.4287  -10.2124 C.3     1  UNL1        0.1667
     14 H          -2.2241   -2.7905  -11.1451 H       1  UNL1        0.0866
     15 C          -2.7063   -1.4776   -9.4446 C.3     1  UNL1        0.1294
     16 H          -2.4852   -0.4210   -9.6029 H       1  UNL1        0.0666
     17 O          -4.0603   -1.6867   -9.8419 O.3     1  UNL1       -0.3846
     18 C          -2.5251   -1.8959   -7.9975 C.3     1  UNL1        0.1283
     19 H          -3.3630   -1.6461   -7.3376 H       1  UNL1        0.0656
     20 C          -2.3091   -3.4028   -8.1471 C.3     1  UNL1        0.1142
     21 H          -3.2862   -3.8825   -8.2981 H       1  UNL1        0.0647
     22 O          -1.5553   -3.5752   -9.3640 O.3     1  UNL1       -0.3456
     23 C          -1.5949   -4.0884   -6.9870 C.3     1  UNL1        0.0879
     24 O          -2.3516   -3.9062   -5.7941 O.3     1  UNL1       -0.2840
     25 P          -1.6009   -3.9852   -4.3602 P.3     1  UNL1        0.4754
     26 O          -0.3401   -4.7996   -4.3445 O.2     1  UNL1       -0.2273
     27 O          -1.3982   -2.4254   -3.9928 O.3     1  UNL1       -0.2779
     28 C          -1.8619   -1.8332   -2.7976 C.3     1  UNL1        0.1283
     29 H          -2.8352   -2.2547   -2.5215 H       1  UNL1        0.0656
     30 C          -2.0416   -0.3053   -2.9357 C.3     1  UNL1        0.1142
     31 H          -3.1186   -0.0864   -2.9083 H       1  UNL1        0.0647
     32 C          -1.4103    0.3449   -4.1649 C.3     1  UNL1        0.0879
     33 O          -2.0258   -0.1651   -5.3370 O.3     1  UNL1       -0.2840
     34 P          -1.3453    0.1461   -6.7737 P.3     1  UNL1        0.4754
     35 O          -0.0012    0.8147   -6.7290 O.2     1  UNL1       -0.2273
     36 O          -1.3316   -1.2949   -7.5074 O.3     1  UNL1       -0.2779
     37 O          -2.4973    1.0050   -7.5148 O.3     1  UNL1       -0.3025
     38 O          -1.4488    0.2995   -1.7661 O.3     1  UNL1       -0.3456
     39 C          -1.1665   -0.7386   -0.8192 C.3     1  UNL1        0.1667
     40 H          -2.0723   -0.8638   -0.2088 H       1  UNL1        0.0866
     41 C          -0.8865   -1.9922   -1.6393 C.3     1  UNL1        0.1294
     42 H          -1.0619   -2.9072   -1.0607 H       1  UNL1        0.0666
     43 O           0.4469   -2.0156   -2.1301 O.3     1  UNL1       -0.3846
     44 N          -0.0986   -0.2905    0.0513 N.ar    1  UNL1       -0.2855
     45 C          -0.1209   -0.3877    1.4195 C.ar    1  UNL1        0.1004
     46 N           0.8979    0.2509    1.9546 N.ar    1  UNL1       -0.2306
     47 C           1.7828    0.4315    0.9003 C.ar    1  UNL1        0.1473
     48 C           1.0190    0.4494   -0.2784 C.ar    1  UNL1        0.1674
     49 N           1.5545    0.5776   -1.5115 N.ar    1  UNL1       -0.2159
     50 C           2.6730    1.3275   -1.4468 C.ar    1  UNL1        0.1205
     51 N           3.4472    1.5413   -0.3584 N.ar    1  UNL1       -0.2188
     52 C           2.8850    1.3303    0.8722 C.ar    1  UNL1        0.1472
     53 N           3.6905    1.4845    2.0239 N.pl3   1  UNL1       -0.3413
     54 O          -2.7574   -4.5157   -3.3610 O.3     1  UNL1       -0.3025
     55 H          -2.6577    1.7877  -13.0673 H       1  UNL1        0.1451
     56 H          -1.5780    3.0178  -12.8321 H       1  UNL1        0.1451
     57 H           0.9210   -3.0594   -9.4978 H       1  UNL1        0.1030
     58 H          -4.1827   -2.6292  -10.0438 H       1  UNL1        0.2101
     59 H          -1.4930   -5.1652   -7.1734 H       1  UNL1        0.0592
     60 H          -0.5829   -3.6832   -6.8655 H       1  UNL1        0.0592
     61 H          -1.5179    1.4383   -4.1597 H       1  UNL1        0.0592
     62 H          -0.3395    0.1228   -4.1894 H       1  UNL1        0.0592
     63 H          -2.3226    1.9428   -7.7444 H       1  UNL1        0.2220
     64 H           0.9473   -2.6448   -1.5814 H       1  UNL1        0.2101
     65 H          -0.9598   -0.8124    1.9541 H       1  UNL1        0.1030
     66 H           3.1245    1.5847   -2.3986 H       1  UNL1        0.1048
     67 H           4.3518    2.2477    1.8935 H       1  UNL1        0.1438
     68 H           3.1175    1.6743    2.8430 H       1  UNL1        0.1438
     69 H          -2.5052   -4.7918   -2.4530 H       1  UNL1        0.2220
@<TRIPOS>BOND
     1     1     2    2
     2     2     3   ar
     3     2     9   ar
     4     3     4    1
     5     3     5   ar
     6     5     6    1
     7     5     7   ar
     8     6    55    1
     9     6    56    1
    10     7     8   ar
    11     8     9   ar
    12     8    12   ar
    13     9    10   ar
    14    10    11   ar
    15    11    12   ar
    16    11    57    1
    17    13    15    1
    18    13    22    1
    19    13    14    1
    20    13    12    1
    21    15    18    1
    22    15    17    1
    23    15    16    1
    24    17    58    1
    25    18    20    1
    26    18    36    1
    27    18    19    1
    28    20    22    1
    29    20    23    1
    30    20    21    1
    31    23    24    1
    32    23    59    1
    33    23    60    1
    34    25    24    1
    35    25    27    1
    36    25    26    2
    37    25    54    1
    38    27    28    1
    39    28    30    1
    40    28    41    1
    41    28    29    1
    42    30    32    1
    43    30    38    1
    44    30    31    1
    45    32    33    1
    46    32    61    1
    47    32    62    1
    48    34    33    1
    49    34    36    1
    50    34    37    1
    51    34    35    2
    52    37    63    1
    53    38    39    1
    54    39    41    1
    55    39    40    1
    56    39    44    1
    57    41    43    1
    58    41    42    1
    59    43    64    1
    60    44    45   ar
    61    44    48   ar
    62    45    46   ar
    63    45    65    1
    64    46    47   ar
    65    47    48   ar
    66    47    52   ar
    67    48    49   ar
    68    49    50   ar
    69    50    51   ar
    70    50    66    1
    71    51    52   ar
    72    52    53    1
    73    53    67    1
    74    53    68    1
    75    54    69    1
