REMARK  8 active torsions:
REMARK  status: ('A' for Active; 'I' for Inactive)
REMARK    1  A    between atoms: C_5  and  N_6 
REMARK    2  A    between atoms: C_13  and  N_12 
REMARK    3  A    between atoms: C_14  and  O_15 
REMARK    4  A    between atoms: P_21  and  O_46 
REMARK    5  A    between atoms: P_28  and  O_31 
REMARK    6  A    between atoms: C_33  and  N_36 
REMARK    7  A    between atoms: C_34  and  O_35 
REMARK    8  A    between atoms: C_44  and  N_45 
ROOT
ATOM      1  C   UNL d   1      -1.774  -2.429 -10.212  0.00  0.00     0.262 C 
ATOM      2  C   UNL d   1      -2.706  -1.478  -9.445  0.00  0.00     0.199 C 
ATOM      3  C   UNL d   1      -2.525  -1.896  -7.997  0.00  0.00     0.197 C 
ATOM      4  C   UNL d   1      -2.309  -3.403  -8.147  0.00  0.00     0.180 C 
ATOM      5  O   UNL d   1      -1.555  -3.575  -9.364  0.00  0.00    -0.353 OA
ATOM      6  C   UNL d   1      -1.595  -4.088  -6.987  0.00  0.00     0.215 C 
ATOM      7  O   UNL d   1      -2.352  -3.906  -5.794  0.00  0.00    -0.294 OA
ATOM      8  P   UNL d   1      -1.601  -3.985  -4.360  0.00  0.00     0.393 P 
ATOM      9  O   UNL d   1      -0.340  -4.800  -4.345  0.00  0.00    -0.631 OA
ATOM     10  O   UNL d   1      -1.398  -2.425  -3.993  0.00  0.00    -0.286 OA
ATOM     11  C   UNL d   1      -1.862  -1.833  -2.798  0.00  0.00     0.197 C 
ATOM     12  C   UNL d   1      -2.042  -0.305  -2.936  0.00  0.00     0.180 C 
ATOM     13  C   UNL d   1      -1.410   0.345  -4.165  0.00  0.00     0.215 C 
ATOM     14  O   UNL d   1      -2.026  -0.165  -5.337  0.00  0.00    -0.294 OA
ATOM     15  P   UNL d   1      -1.345   0.146  -6.774  0.00  0.00     0.393 P 
ATOM     16  O   UNL d   1      -0.001   0.815  -6.729  0.00  0.00    -0.631 OA
ATOM     17  O   UNL d   1      -1.332  -1.295  -7.507  0.00  0.00    -0.286 OA
ATOM     18  O   UNL d   1      -1.449   0.299  -1.766  0.00  0.00    -0.353 OA
ATOM     19  C   UNL d   1      -1.167  -0.739  -0.819  0.00  0.00     0.262 C 
ATOM     20  C   UNL d   1      -0.886  -1.992  -1.639  0.00  0.00     0.199 C 
ENDROOT
BRANCH   1  21
ATOM     21  N   UNL d   1      -0.484  -1.856 -10.611  0.00  0.00    -0.294 N 
ATOM     22  C   UNL d   1      -0.334  -0.622 -11.204  0.00  0.00     0.171 A 
ATOM     23  N   UNL d   1      -1.284   0.061 -11.889  0.00  0.00    -0.200 NA
ATOM     24  C   UNL d   1       0.998  -0.314 -11.060  0.00  0.00     0.172 A 
ATOM     25  C   UNL d   1      -0.846   1.186 -12.408  0.00  0.00     0.181 A 
ATOM     26  N   UNL d   1       0.487   1.628 -12.256  0.00  0.00    -0.296 N 
ATOM     27  C   UNL d   1       1.508   0.904 -11.629  0.00  0.00     0.280 A 
ATOM     28  H   UNL d   1       0.745   2.496 -12.716  0.00  0.00     0.171 HD
ATOM     29  O   UNL d   1       2.683   1.241 -11.573  0.00  0.00    -0.265 OA
ATOM     30  N   UNL d   1       1.682  -1.301 -10.420  0.00  0.00    -0.234 NA
ATOM     31  C   UNL d   1       0.736  -2.132 -10.024  0.00  0.00     0.214 C 
BRANCH  25  32
ATOM     32  N   UNL d   1      -1.672   2.042 -13.108  0.00  0.00    -0.272 NA
ATOM     33  H   UNL d   1      -2.658   1.788 -13.067  0.00  0.00     0.127 HD
ATOM     34  H   UNL d   1      -1.578   3.018 -12.832  0.00  0.00     0.127 HD
ENDBRANCH  25  32
ENDBRANCH   1  21
BRANCH   2  35
ATOM     35  O   UNL d   1      -4.060  -1.687  -9.842  0.00  0.00    -0.388 OA
ATOM     36  H   UNL d   1      -4.183  -2.629 -10.044  0.00  0.00     0.210 HD
ENDBRANCH   2  35
BRANCH  15  37
ATOM     37  O   UNL d   1      -2.497   1.005  -7.515  0.00  0.00    -0.307 OA
ATOM     38  H   UNL d   1      -2.323   1.943  -7.744  0.00  0.00     0.222 HD
ENDBRANCH  15  37
BRANCH   8  39
ATOM     39  O   UNL d   1      -2.757  -4.516  -3.361  0.00  0.00    -0.307 OA
ATOM     40  H   UNL d   1      -2.505  -4.792  -2.453  0.00  0.00     0.222 HD
ENDBRANCH   8  39
BRANCH  20  41
ATOM     41  O   UNL d   1       0.447  -2.016  -2.130  0.00  0.00    -0.388 OA
ATOM     42  H   UNL d   1       0.947  -2.645  -1.581  0.00  0.00     0.210 HD
ENDBRANCH  20  41
BRANCH  19  43
ATOM     43  N   UNL d   1      -0.099  -0.290   0.051  0.00  0.00    -0.294 N 
ATOM     44  C   UNL d   1      -0.121  -0.388   1.419  0.00  0.00     0.214 C 
ATOM     45  N   UNL d   1       0.898   0.251   1.955  0.00  0.00    -0.236 NA
ATOM     46  C   UNL d   1       1.783   0.431   0.900  0.00  0.00     0.144 C 
ATOM     47  C   UNL d   1       1.019   0.449  -0.278  0.00  0.00     0.166 C 
ATOM     48  C   UNL d   1       2.885   1.330   0.872  0.00  0.00     0.135 C 
ATOM     49  N   UNL d   1       1.554   0.578  -1.512  0.00  0.00    -0.222 NA
ATOM     50  C   UNL d   1       2.673   1.327  -1.447  0.00  0.00     0.237 C 
ATOM     51  N   UNL d   1       3.447   1.541  -0.358  0.00  0.00    -0.228 NA
BRANCH  48  52
ATOM     52  N   UNL d   1       3.691   1.484   2.024  0.00  0.00    -0.285 NA
ATOM     53  H   UNL d   1       4.352   2.248   1.893  0.00  0.00     0.125 HD
ATOM     54  H   UNL d   1       3.118   1.674   2.843  0.00  0.00     0.125 HD
ENDBRANCH  48  52
ENDBRANCH  19  43
TORSDOF 8
