@<TRIPOS>MOLECULE
3C5D_LIV_B_24
 107 111 0 0 0
SMALL
GASTEIGER

@<TRIPOS>ATOM
      1 C          -2.8882   -4.1685    0.4887 C.3     1  UNL1        0.1752
      2 H          -3.5305   -3.7502   -0.2672 H       1  UNL1        0.0926
      3 O          -3.0370   -4.2945    1.8694 O.3     1  UNL1       -0.3423
      4 C          -2.5814   -5.5674    2.4162 C.3     1  UNL1        0.1055
      5 H          -2.7832   -6.3368    1.6509 H       1  UNL1        0.0639
      6 C          -1.0563   -5.6649    2.7042 C.3     1  UNL1        0.1166
      7 H          -0.5770   -4.7004    2.5171 H       1  UNL1        0.0650
      8 C          -0.5711   -6.1544    4.0756 C.3     1  UNL1        0.0990
      9 H           0.1664   -6.9575    4.0008 H       1  UNL1        0.0636
     10 C          -1.5917   -6.6179    5.0874 C.3     1  UNL1        0.0351
     11 H          -1.3494   -6.1145    6.0287 H       1  UNL1        0.0485
     12 N          -1.3798   -8.0248    5.2952 N.3     1  UNL1       -0.3250
     13 C          -3.0658   -6.4503    4.8388 C.3     1  UNL1       -0.0175
     14 C          -3.5827   -5.8105    3.5616 C.3     1  UNL1        0.0355
     15 H          -4.0729   -4.8602    3.8369 H       1  UNL1        0.0485
     16 N          -4.6892   -6.6572    2.9943 N.3     1  UNL1       -0.3250
     17 O           0.0997   -5.0240    4.6123 O.3     1  UNL1       -0.3876
     18 O          -0.6344   -6.5113    1.6124 O.3     1  UNL1       -0.3402
     19 C           0.5230   -7.3290    1.5850 C.3     1  UNL1        0.1884
     20 H           0.2066   -8.3623    1.7937 H       1  UNL1        0.0938
     21 C           1.1019   -7.1817    0.1863 C.3     1  UNL1        0.1345
     22 H           1.2014   -6.1221   -0.0641 H       1  UNL1        0.0671
     23 O           0.2445   -7.7374   -0.7960 O.3     1  UNL1       -0.3841
     24 C           2.4827   -7.8273    0.2972 C.3     1  UNL1        0.1205
     25 H           3.2639   -7.2225   -0.1645 H       1  UNL1        0.0651
     26 C           2.6807   -7.9358    1.8394 C.3     1  UNL1        0.1135
     27 H           2.4604   -8.9494    2.2043 H       1  UNL1        0.0647
     28 O           1.6675   -7.0504    2.3955 O.3     1  UNL1       -0.3405
     29 C           3.9955   -7.5037    2.4742 C.3     1  UNL1        0.0730
     30 O           5.1002   -8.2252    1.9600 O.3     1  UNL1       -0.3924
     31 O           2.3971   -9.1076   -0.3034 O.3     1  UNL1       -0.3410
     32 C           3.4240   -9.4577   -1.2641 C.3     1  UNL1        0.1776
     33 H           3.6893  -10.3759   -1.8508 H       1  UNL1        0.0927
     34 C           4.0092  -10.4800   -0.2529 C.3     1  UNL1        0.0853
     35 H           4.1143  -10.0065    0.7407 H       1  UNL1        0.0535
     36 C           2.9848  -11.6165   -0.1872 C.3     1  UNL1        0.1036
     37 H           3.4430  -12.5929   -0.1425 H       1  UNL1        0.0637
     38 C           1.7372  -11.6285   -1.2166 C.3     1  UNL1        0.1165
     39 H           0.9521  -11.2040   -0.5731 H       1  UNL1        0.0650
     40 O           1.2125  -12.9855   -1.5084 O.3     1  UNL1       -0.3402
     41 C           0.5812  -13.5207   -0.3318 C.3     1  UNL1        0.1884
     42 H           0.6625  -12.6597    0.2879 H       1  UNL1        0.0938
     43 C           1.3395  -14.6185    0.4734 C.3     1  UNL1        0.1341
     44 H           0.7221  -15.5546    0.4898 H       1  UNL1        0.0671
     45 C           1.3315  -14.1450    1.9844 C.3     1  UNL1        0.1141
     46 H           1.1851  -15.0844    2.5441 H       1  UNL1        0.0648
     47 C           0.1134  -13.1410    2.1989 C.3     1  UNL1        0.1119
     48 H           0.3413  -12.1042    1.8937 H       1  UNL1        0.0647
     49 C          -1.0964  -13.7087    1.3285 C.3     1  UNL1        0.1130
     50 H          -1.3031  -14.7457    1.6703 H       1  UNL1        0.0647
     51 C          -2.3980  -12.9045    1.4483 C.3     1  UNL1        0.0730
     52 O          -2.6392  -12.5159    2.8034 O.3     1  UNL1       -0.3924
     53 O          -0.8120  -13.7783   -0.1672 O.3     1  UNL1       -0.3405
     54 O          -0.1894  -12.9802    3.5738 O.3     1  UNL1       -0.3865
     55 O           2.5650  -13.5496    2.3532 O.3     1  UNL1       -0.3864
     56 O           2.6357  -14.8980   -0.0162 O.3     1  UNL1       -0.3841
     57 C           1.5267  -10.5171   -2.3328 C.3     1  UNL1        0.1026
     58 H           0.6733   -9.9526   -1.9102 H       1  UNL1        0.0636
     59 O           2.5543   -9.4647   -2.4288 O.3     1  UNL1       -0.3425
     60 C           0.9438  -10.8750   -3.7140 C.3     1  UNL1        0.0222
     61 N           0.9000  -12.2693   -4.1350 N.3     1  UNL1       -0.3276
     62 O           2.4289  -11.4070    1.1286 O.3     1  UNL1       -0.3874
     63 N           5.4058  -10.8875   -0.5111 N.3     1  UNL1       -0.3211
     64 C          -4.1539   -5.1101   -0.1111 C.3     1  UNL1        0.0590
     65 H          -4.6576   -5.5303    0.7498 H       1  UNL1        0.0509
     66 N          -3.7476   -6.2289   -0.9685 N.3     1  UNL1       -0.3231
     67 C          -5.4768   -4.1320   -0.8235 C.3     1  UNL1       -0.0044
     68 C          -5.2846   -2.7250   -0.1524 C.3     1  UNL1        0.0851
     69 H          -4.4555   -2.8239   -0.9566 H       1  UNL1        0.0620
     70 O          -5.5286   -3.2857    1.1578 O.3     1  UNL1       -0.3891
     71 C          -4.0938   -1.7571    0.2627 C.3     1  UNL1        0.1105
     72 H          -3.8398   -1.0498   -0.5256 H       1  UNL1        0.0646
     73 O          -2.7161   -2.6457    0.4554 O.3     1  UNL1       -0.3417
     74 C          -4.2928   -0.9731    1.5674 C.3     1  UNL1        0.0729
     75 O          -3.1422   -0.1817    1.8429 O.3     1  UNL1       -0.3924
     76 H          -1.5358   -8.5677    4.4443 H       1  UNL1        0.1185
     77 H          -0.4428   -8.2422    5.5865 H       1  UNL1        0.1185
     78 H          -3.5876   -7.4074    4.8810 H       1  UNL1        0.0297
     79 H          -3.3698   -5.8749    5.7068 H       1  UNL1        0.0297
     80 H          -5.5723   -6.3996    3.4308 H       1  UNL1        0.1185
     81 H          -4.5481   -7.6558    3.1681 H       1  UNL1        0.1185
     82 H           1.0003   -5.2012    4.9559 H       1  UNL1        0.2100
     83 H          -0.3481   -8.3827   -0.3698 H       1  UNL1        0.2101
     84 H           4.1971   -6.4361    2.3487 H       1  UNL1        0.0584
     85 H           3.9823   -7.6995    3.5606 H       1  UNL1        0.0584
     86 H           5.2287   -7.9642    1.0326 H       1  UNL1        0.2095
     87 H          -2.3646  -12.0051    0.8070 H       1  UNL1        0.0584
     88 H          -3.2527  -13.5253    1.1381 H       1  UNL1        0.0584
     89 H          -2.6359  -11.5427    2.8233 H       1  UNL1        0.2095
     90 H          -0.6886  -12.1209    3.5154 H       1  UNL1        0.2100
     91 H           3.2094  -13.8975    1.7235 H       1  UNL1        0.2100
     92 H           2.7552  -15.8330    0.1971 H       1  UNL1        0.2101
     93 H          -0.0981  -10.5221   -3.7439 H       1  UNL1        0.0448
     94 H           1.4636  -10.2903   -4.4755 H       1  UNL1        0.0448
     95 H           1.7030  -12.4974   -4.7177 H       1  UNL1        0.1183
     96 H           0.9084  -12.9052   -3.3395 H       1  UNL1        0.1183
     97 H           3.1299  -11.6072    1.7614 H       1  UNL1        0.2100
     98 H           5.7212  -11.4643    0.2767 H       1  UNL1        0.1187
     99 H           5.9969  -10.0497   -0.4602 H       1  UNL1        0.1187
    100 H          -4.2597   -7.0665   -0.6549 H       1  UNL1        0.1186
    101 H          -2.7724   -6.4375   -0.7860 H       1  UNL1        0.1186
    102 H          -5.3760   -4.0875   -1.9133 H       1  UNL1        0.0308
    103 H          -6.4158   -4.6207   -0.5859 H       1  UNL1        0.0308
    104 H          -4.6998   -3.4319    1.6120 H       1  UNL1        0.2099
    105 H          -4.4595   -1.6104    2.4581 H       1  UNL1        0.0584
    106 H          -5.1766   -0.3171    1.4614 H       1  UNL1        0.0584
    107 H          -3.4154    0.7486    1.7662 H       1  UNL1        0.2095
@<TRIPOS>BOND
     1     1     2    1
     2     3     1    1
     3     4     3    1
     4     4     5    1
     5     6     4    1
     6     6     7    1
     7     8     6    1
     8     8     9    1
     9    10     8    1
    10    10    11    1
    11    12    10    1
    12    13    10    1
    13    14    13    1
    14    14    15    1
    15    14     4    1
    16    16    14    1
    17    17     8    1
    18    18     6    1
    19    19    18    1
    20    19    20    1
    21    21    19    1
    22    21    22    1
    23    23    21    1
    24    24    21    1
    25    24    25    1
    26    26    24    1
    27    26    27    1
    28    28    26    1
    29    28    19    1
    30    29    26    1
    31    30    29    1
    32    31    24    1
    33    32    31    1
    34    32    33    1
    35    34    32    1
    36    34    35    1
    37    36    34    1
    38    36    37    1
    39    38    36    1
    40    38    39    1
    41    40    38    1
    42    41    40    1
    43    41    42    1
    44    43    41    1
    45    43    44    1
    46    45    43    1
    47    45    46    1
    48    47    45    1
    49    47    48    1
    50    49    47    1
    51    49    50    1
    52    51    49    1
    53    52    51    1
    54    53    49    1
    55    53    41    1
    56    54    47    1
    57    55    45    1
    58    56    43    1
    59    57    38    1
    60    57    58    1
    61    59    57    1
    62    59    32    1
    63    60    57    1
    64    61    60    1
    65    62    36    1
    66    63    34    1
    67    64     1    1
    68    64    65    1
    69    66    64    1
    70    67    64    1
    71    68    67    1
    72    68    69    1
    73    70    68    1
    74    71    68    1
    75    71    72    1
    76    73    71    1
    77    73     1    1
    78    74    71    1
    79    75    74    1
    80    12    76    1
    81    12    77    1
    82    13    78    1
    83    13    79    1
    84    16    80    1
    85    16    81    1
    86    17    82    1
    87    23    83    1
    88    29    84    1
    89    29    85    1
    90    30    86    1
    91    51    87    1
    92    51    88    1
    93    52    89    1
    94    54    90    1
    95    55    91    1
    96    56    92    1
    97    60    93    1
    98    60    94    1
    99    61    95    1
   100    61    96    1
   101    62    97    1
   102    63    98    1
   103    63    99    1
   104    66   100    1
   105    66   101    1
   106    67   102    1
   107    67   103    1
   108    70   104    1
   109    74   105    1
   110    74   106    1
   111    75   107    1
