REMARK  27 active torsions:
REMARK  status: ('A' for Active; 'I' for Inactive)
REMARK    1  A    between atoms: O_2  and  C_1 
REMARK    2  A    between atoms: C_3  and  O_2 
REMARK    3  A    between atoms: O_12  and  C_4 
REMARK    4  A    between atoms: O_11  and  C_5 
REMARK    5  A    between atoms: N_7  and  C_6 
REMARK    6  A    between atoms: N_10  and  C_9 
REMARK    7  A    between atoms: C_13  and  O_12 
REMARK    8  A    between atoms: O_15  and  C_14 
REMARK    9  A    between atoms: O_21  and  C_16 
REMARK   10  A    between atoms: C_19  and  C_17 
REMARK   11  A    between atoms: O_20  and  C_19 
REMARK   12  A    between atoms: C_22  and  O_21 
REMARK   13  A    between atoms: N_43  and  C_23 
REMARK   14  A    between atoms: O_42  and  C_24 
REMARK   15  A    between atoms: O_26  and  C_25 
REMARK   16  A    between atoms: C_27  and  O_26 
REMARK   17  A    between atoms: O_37  and  C_28 
REMARK   18  A    between atoms: O_36  and  C_29 
REMARK   19  A    between atoms: O_35  and  C_30 
REMARK   20  A    between atoms: C_32  and  C_31 
REMARK   21  A    between atoms: O_33  and  C_32 
REMARK   22  A    between atoms: C_40  and  C_38 
REMARK   23  A    between atoms: N_41  and  C_40 
REMARK   24  A    between atoms: N_45  and  C_44 
REMARK   25  A    between atoms: O_48  and  C_47 
REMARK   26  A    between atoms: C_51  and  C_49 
REMARK   27  A    between atoms: O_52  and  C_51 
ROOT
ATOM      1  C   UNL d   1       0.523  -7.329   1.585  0.00  0.00     0.292 C 
ATOM      2  C   UNL d   1       1.102  -7.182   0.186  0.00  0.00     0.205 C 
ATOM      3  C   UNL d   1       2.483  -7.827   0.297  0.00  0.00     0.189 C 
ATOM      4  C   UNL d   1       2.681  -7.936   1.839  0.00  0.00     0.180 C 
ATOM      5  O   UNL d   1       1.667  -7.050   2.396  0.00  0.00    -0.348 OA
ENDROOT
BRANCH   3   6
ATOM      6  O   UNL d   1       2.397  -9.108  -0.303  0.00  0.00    -0.348 OA
BRANCH   6   7
ATOM      7  C   UNL d   1       3.424  -9.458  -1.264  0.00  0.00     0.296 C 
ATOM      8  C   UNL d   1       4.009 -10.480  -0.253  0.00  0.00     0.303 C 
ATOM      9  C   UNL d   1       2.985 -11.617  -0.187  0.00  0.00     0.187 C 
ATOM     10  C   UNL d   1       1.737 -11.629  -1.217  0.00  0.00     0.186 C 
ATOM     11  C   UNL d   1       1.527 -10.517  -2.333  0.00  0.00     0.184 C 
ATOM     12  O   UNL d   1       2.554  -9.465  -2.429  0.00  0.00    -0.349 OA
BRANCH   8  13
ATOM     13  N   UNL d   1       5.406 -10.887  -0.511  0.00  0.00     0.090 N 
ATOM     14  H   UNL d   1       5.721 -11.464   0.277  0.00  0.00     0.313 HD
ATOM     15  H   UNL d   1       5.997 -10.050  -0.460  0.00  0.00     0.313 HD
ENDBRANCH   8  13
BRANCH   9  16
ATOM     16  O   UNL d   1       2.429 -11.407   1.129  0.00  0.00    -0.391 OA
ATOM     17  H   UNL d   1       3.130 -11.607   1.761  0.00  0.00     0.210 HD
ENDBRANCH   9  16
BRANCH  10  18
ATOM     18  O   UNL d   1       1.212 -12.986  -1.508  0.00  0.00    -0.348 OA
BRANCH  18  19
ATOM     19  C   UNL d   1       0.581 -13.521  -0.332  0.00  0.00     0.292 C 
ATOM     20  C   UNL d   1       1.339 -14.618   0.473  0.00  0.00     0.204 C 
ATOM     21  C   UNL d   1       1.331 -14.145   1.984  0.00  0.00     0.183 C 
ATOM     22  C   UNL d   1       0.113 -13.141   2.199  0.00  0.00     0.180 C 
ATOM     23  C   UNL d   1      -1.096 -13.709   1.329  0.00  0.00     0.179 C 
ATOM     24  O   UNL d   1      -0.812 -13.778  -0.167  0.00  0.00    -0.348 OA
BRANCH  20  25
ATOM     25  O   UNL d   1       2.636 -14.898  -0.016  0.00  0.00    -0.388 OA
ATOM     26  H   UNL d   1       2.755 -15.833   0.197  0.00  0.00     0.210 HD
ENDBRANCH  20  25
BRANCH  21  27
ATOM     27  O   UNL d   1       2.565 -13.550   2.353  0.00  0.00    -0.390 OA
ATOM     28  H   UNL d   1       3.209 -13.898   1.724  0.00  0.00     0.210 HD
ENDBRANCH  21  27
BRANCH  22  29
ATOM     29  O   UNL d   1      -0.189 -12.980   3.574  0.00  0.00    -0.390 OA
ATOM     30  H   UNL d   1      -0.689 -12.121   3.515  0.00  0.00     0.210 HD
ENDBRANCH  22  29
BRANCH  23  31
ATOM     31  C   UNL d   1      -2.398 -12.905   1.448  0.00  0.00     0.198 C 
BRANCH  31  32
ATOM     32  O   UNL d   1      -2.639 -12.516   2.803  0.00  0.00    -0.398 OA
ATOM     33  H   UNL d   1      -2.636 -11.543   2.823  0.00  0.00     0.209 HD
ENDBRANCH  31  32
ENDBRANCH  23  31
ENDBRANCH  18  19
ENDBRANCH  10  18
BRANCH  11  34
ATOM     34  C   UNL d   1       0.944 -10.875  -3.714  0.00  0.00     0.301 C 
BRANCH  34  35
ATOM     35  N   UNL d   1       0.900 -12.269  -4.135  0.00  0.00     0.080 N 
ATOM     36  H   UNL d   1       1.703 -12.497  -4.718  0.00  0.00     0.312 HD
ATOM     37  H   UNL d   1       0.908 -12.905  -3.340  0.00  0.00     0.312 HD
ENDBRANCH  34  35
ENDBRANCH  11  34
ENDBRANCH   6   7
ENDBRANCH   3   6
BRANCH   2  38
ATOM     38  O   UNL d   1       0.244  -7.737  -0.796  0.00  0.00    -0.388 OA
ATOM     39  H   UNL d   1      -0.348  -8.383  -0.370  0.00  0.00     0.210 HD
ENDBRANCH   2  38
BRANCH   4  40
ATOM     40  C   UNL d   1       3.995  -7.504   2.474  0.00  0.00     0.198 C 
BRANCH  40  41
ATOM     41  O   UNL d   1       5.100  -8.225   1.960  0.00  0.00    -0.398 OA
ATOM     42  H   UNL d   1       5.229  -7.964   1.033  0.00  0.00     0.209 HD
ENDBRANCH  40  41
ENDBRANCH   4  40
BRANCH   1  43
ATOM     43  O   UNL d   1      -0.634  -6.511   1.612  0.00  0.00    -0.348 OA
BRANCH  43  44
ATOM     44  C   UNL d   1      -1.056  -5.665   2.704  0.00  0.00     0.186 C 
ATOM     45  C   UNL d   1      -2.581  -5.567   2.416  0.00  0.00     0.189 C 
ATOM     46  C   UNL d   1      -3.583  -5.811   3.562  0.00  0.00     0.251 C 
ATOM     47  C   UNL d   1      -3.066  -6.450   4.839  0.00  0.00     0.076 C 
ATOM     48  C   UNL d   1      -1.592  -6.618   5.087  0.00  0.00     0.251 C 
ATOM     49  C   UNL d   1      -0.571  -6.154   4.076  0.00  0.00     0.182 C 
BRANCH  45  50
ATOM     50  O   UNL d   1      -3.037  -4.295   1.869  0.00  0.00    -0.349 OA
BRANCH  50  51
ATOM     51  C   UNL d   1      -2.888  -4.168   0.489  0.00  0.00     0.293 C 
ATOM     52  C   UNL d   1      -4.154  -5.110  -0.111  0.00  0.00     0.275 C 
ATOM     53  C   UNL d   1      -5.477  -4.132  -0.824  0.00  0.00     0.074 C 
ATOM     54  C   UNL d   1      -5.285  -2.725  -0.152  0.00  0.00     0.151 C 
ATOM     55  C   UNL d   1      -4.094  -1.757   0.263  0.00  0.00     0.177 C 
ATOM     56  O   UNL d   1      -2.716  -2.646   0.455  0.00  0.00    -0.349 OA
BRANCH  52  57
ATOM     57  N   UNL d   1      -3.748  -6.229  -0.969  0.00  0.00     0.087 N 
ATOM     58  H   UNL d   1      -4.260  -7.066  -0.655  0.00  0.00     0.313 HD
ATOM     59  H   UNL d   1      -2.772  -6.438  -0.786  0.00  0.00     0.313 HD
ENDBRANCH  52  57
BRANCH  54  60
ATOM     60  O   UNL d   1      -5.529  -3.286   1.158  0.00  0.00    -0.393 OA
ATOM     61  H   UNL d   1      -4.700  -3.432   1.612  0.00  0.00     0.210 HD
ENDBRANCH  54  60
BRANCH  55  62
ATOM     62  C   UNL d   1      -4.293  -0.973   1.567  0.00  0.00     0.198 C 
BRANCH  62  63
ATOM     63  O   UNL d   1      -3.142  -0.182   1.843  0.00  0.00    -0.398 OA
ATOM     64  H   UNL d   1      -3.415   0.749   1.766  0.00  0.00     0.209 HD
ENDBRANCH  62  63
ENDBRANCH  55  62
ENDBRANCH  50  51
ENDBRANCH  45  50
BRANCH  46  65
ATOM     65  N   UNL d   1      -4.689  -6.657   2.994  0.00  0.00     0.085 N 
ATOM     66  H   UNL d   1      -5.572  -6.400   3.431  0.00  0.00     0.313 HD
ATOM     67  H   UNL d   1      -4.548  -7.656   3.168  0.00  0.00     0.313 HD
ENDBRANCH  46  65
BRANCH  48  68
ATOM     68  N   UNL d   1      -1.380  -8.025   5.295  0.00  0.00     0.085 N 
ATOM     69  H   UNL d   1      -1.536  -8.568   4.444  0.00  0.00     0.313 HD
ATOM     70  H   UNL d   1      -0.443  -8.242   5.587  0.00  0.00     0.313 HD
ENDBRANCH  48  68
BRANCH  49  71
ATOM     71  O   UNL d   1       0.100  -5.024   4.612  0.00  0.00    -0.391 OA
ATOM     72  H   UNL d   1       1.000  -5.201   4.956  0.00  0.00     0.210 HD
ENDBRANCH  49  71
ENDBRANCH  43  44
ENDBRANCH   1  43
TORSDOF 27
