3C5D_LIV_B_24
  1228              3D

107111  0  0  0  0  0  0  0  0999 V2000
   -2.8882   -4.1685    0.4887 C   0  0  0  0  0  0  0  0  0  0  0  0
   -3.5305   -3.7502   -0.2672 H   0  0  0  0  0  0  0  0  0  0  0  0
   -3.0370   -4.2945    1.8694 O   0  0  0  0  0  0  0  0  0  0  0  0
   -2.5814   -5.5674    2.4162 C   0  0  0  0  0  0  0  0  0  0  0  0
   -2.7832   -6.3368    1.6509 H   0  0  0  0  0  0  0  0  0  0  0  0
   -1.0563   -5.6649    2.7042 C   0  0  0  0  0  0  0  0  0  0  0  0
   -0.5770   -4.7004    2.5171 H   0  0  0  0  0  0  0  0  0  0  0  0
   -0.5711   -6.1544    4.0756 C   0  0  0  0  0  0  0  0  0  0  0  0
    0.1664   -6.9575    4.0008 H   0  0  0  0  0  0  0  0  0  0  0  0
   -1.5917   -6.6179    5.0874 C   0  0  0  0  0  0  0  0  0  0  0  0
   -1.3494   -6.1145    6.0287 H   0  0  0  0  0  0  0  0  0  0  0  0
   -1.3798   -8.0248    5.2952 N   0  0  0  0  0  0  0  0  0  0  0  0
   -3.0658   -6.4503    4.8388 C   0  0  0  0  0  0  0  0  0  0  0  0
   -3.5827   -5.8105    3.5616 C   0  0  0  0  0  0  0  0  0  0  0  0
   -4.0729   -4.8602    3.8369 H   0  0  0  0  0  0  0  0  0  0  0  0
   -4.6892   -6.6572    2.9943 N   0  0  0  0  0  0  0  0  0  0  0  0
    0.0997   -5.0240    4.6123 O   0  0  0  0  0  0  0  0  0  0  0  0
   -0.6344   -6.5113    1.6124 O   0  0  0  0  0  0  0  0  0  0  0  0
    0.5230   -7.3290    1.5850 C   0  0  0  0  0  0  0  0  0  0  0  0
    0.2066   -8.3623    1.7937 H   0  0  0  0  0  0  0  0  0  0  0  0
    1.1019   -7.1817    0.1863 C   0  0  0  0  0  0  0  0  0  0  0  0
    1.2014   -6.1221   -0.0641 H   0  0  0  0  0  0  0  0  0  0  0  0
    0.2445   -7.7374   -0.7960 O   0  0  0  0  0  0  0  0  0  0  0  0
    2.4827   -7.8273    0.2972 C   0  0  0  0  0  0  0  0  0  0  0  0
    3.2639   -7.2225   -0.1645 H   0  0  0  0  0  0  0  0  0  0  0  0
    2.6807   -7.9358    1.8394 C   0  0  0  0  0  0  0  0  0  0  0  0
    2.4604   -8.9494    2.2043 H   0  0  0  0  0  0  0  0  0  0  0  0
    1.6675   -7.0504    2.3955 O   0  0  0  0  0  0  0  0  0  0  0  0
    3.9955   -7.5037    2.4742 C   0  0  0  0  0  0  0  0  0  0  0  0
    5.1002   -8.2252    1.9600 O   0  0  0  0  0  0  0  0  0  0  0  0
    2.3971   -9.1076   -0.3034 O   0  0  0  0  0  0  0  0  0  0  0  0
    3.4240   -9.4577   -1.2641 C   0  0  0  0  0  0  0  0  0  0  0  0
    3.6893  -10.3759   -1.8508 H   0  0  0  0  0  0  0  0  0  0  0  0
    4.0092  -10.4800   -0.2529 C   0  0  0  0  0  0  0  0  0  0  0  0
    4.1143  -10.0065    0.7407 H   0  0  0  0  0  0  0  0  0  0  0  0
    2.9848  -11.6165   -0.1872 C   0  0  0  0  0  0  0  0  0  0  0  0
    3.4430  -12.5929   -0.1425 H   0  0  0  0  0  0  0  0  0  0  0  0
    1.7372  -11.6285   -1.2166 C   0  0  0  0  0  0  0  0  0  0  0  0
    0.9521  -11.2040   -0.5731 H   0  0  0  0  0  0  0  0  0  0  0  0
    1.2125  -12.9855   -1.5084 O   0  0  0  0  0  0  0  0  0  0  0  0
    0.5812  -13.5207   -0.3318 C   0  0  0  0  0  0  0  0  0  0  0  0
    0.6625  -12.6597    0.2879 H   0  0  0  0  0  0  0  0  0  0  0  0
    1.3395  -14.6185    0.4734 C   0  0  0  0  0  0  0  0  0  0  0  0
    0.7221  -15.5546    0.4898 H   0  0  0  0  0  0  0  0  0  0  0  0
    1.3315  -14.1450    1.9844 C   0  0  0  0  0  0  0  0  0  0  0  0
    1.1851  -15.0844    2.5441 H   0  0  0  0  0  0  0  0  0  0  0  0
    0.1134  -13.1410    2.1989 C   0  0  0  0  0  0  0  0  0  0  0  0
    0.3413  -12.1042    1.8937 H   0  0  0  0  0  0  0  0  0  0  0  0
   -1.0964  -13.7087    1.3285 C   0  0  0  0  0  0  0  0  0  0  0  0
   -1.3031  -14.7457    1.6703 H   0  0  0  0  0  0  0  0  0  0  0  0
   -2.3980  -12.9045    1.4483 C   0  0  0  0  0  0  0  0  0  0  0  0
   -2.6392  -12.5159    2.8034 O   0  0  0  0  0  0  0  0  0  0  0  0
   -0.8120  -13.7783   -0.1672 O   0  0  0  0  0  0  0  0  0  0  0  0
   -0.1894  -12.9802    3.5738 O   0  0  0  0  0  0  0  0  0  0  0  0
    2.5650  -13.5496    2.3532 O   0  0  0  0  0  0  0  0  0  0  0  0
    2.6357  -14.8980   -0.0162 O   0  0  0  0  0  0  0  0  0  0  0  0
    1.5267  -10.5171   -2.3328 C   0  0  0  0  0  0  0  0  0  0  0  0
    0.6733   -9.9526   -1.9102 H   0  0  0  0  0  0  0  0  0  0  0  0
    2.5543   -9.4647   -2.4288 O   0  0  0  0  0  0  0  0  0  0  0  0
    0.9438  -10.8750   -3.7140 C   0  0  0  0  0  0  0  0  0  0  0  0
    0.9000  -12.2693   -4.1350 N   0  0  0  0  0  0  0  0  0  0  0  0
    2.4289  -11.4070    1.1286 O   0  0  0  0  0  0  0  0  0  0  0  0
    5.4058  -10.8875   -0.5111 N   0  0  0  0  0  0  0  0  0  0  0  0
   -4.1539   -5.1101   -0.1111 C   0  0  0  0  0  0  0  0  0  0  0  0
   -4.6576   -5.5303    0.7498 H   0  0  0  0  0  0  0  0  0  0  0  0
   -3.7476   -6.2289   -0.9685 N   0  0  0  0  0  0  0  0  0  0  0  0
   -5.4768   -4.1320   -0.8235 C   0  0  0  0  0  0  0  0  0  0  0  0
   -5.2846   -2.7250   -0.1524 C   0  0  0  0  0  0  0  0  0  0  0  0
   -4.4555   -2.8239   -0.9566 H   0  0  0  0  0  0  0  0  0  0  0  0
   -5.5286   -3.2857    1.1578 O   0  0  0  0  0  0  0  0  0  0  0  0
   -4.0938   -1.7571    0.2627 C   0  0  0  0  0  0  0  0  0  0  0  0
   -3.8398   -1.0498   -0.5256 H   0  0  0  0  0  0  0  0  0  0  0  0
   -2.7161   -2.6457    0.4554 O   0  0  0  0  0  0  0  0  0  0  0  0
   -4.2928   -0.9731    1.5674 C   0  0  0  0  0  0  0  0  0  0  0  0
   -3.1422   -0.1817    1.8429 O   0  0  0  0  0  0  0  0  0  0  0  0
   -1.5358   -8.5677    4.4443 H   0  0  0  0  0  0  0  0  0  0  0  0
   -0.4428   -8.2422    5.5865 H   0  0  0  0  0  0  0  0  0  0  0  0
   -3.5876   -7.4074    4.8810 H   0  0  0  0  0  0  0  0  0  0  0  0
   -3.3698   -5.8749    5.7068 H   0  0  0  0  0  0  0  0  0  0  0  0
   -5.5723   -6.3996    3.4308 H   0  0  0  0  0  0  0  0  0  0  0  0
   -4.5481   -7.6558    3.1681 H   0  0  0  0  0  0  0  0  0  0  0  0
    1.0003   -5.2012    4.9559 H   0  0  0  0  0  0  0  0  0  0  0  0
   -0.3481   -8.3827   -0.3698 H   0  0  0  0  0  0  0  0  0  0  0  0
    4.1971   -6.4361    2.3487 H   0  0  0  0  0  0  0  0  0  0  0  0
    3.9823   -7.6995    3.5606 H   0  0  0  0  0  0  0  0  0  0  0  0
    5.2287   -7.9642    1.0326 H   0  0  0  0  0  0  0  0  0  0  0  0
   -2.3646  -12.0051    0.8070 H   0  0  0  0  0  0  0  0  0  0  0  0
   -3.2527  -13.5253    1.1381 H   0  0  0  0  0  0  0  0  0  0  0  0
   -2.6359  -11.5427    2.8233 H   0  0  0  0  0  0  0  0  0  0  0  0
   -0.6886  -12.1209    3.5154 H   0  0  0  0  0  0  0  0  0  0  0  0
    3.2094  -13.8975    1.7235 H   0  0  0  0  0  0  0  0  0  0  0  0
    2.7552  -15.8330    0.1971 H   0  0  0  0  0  0  0  0  0  0  0  0
   -0.0981  -10.5221   -3.7439 H   0  0  0  0  0  0  0  0  0  0  0  0
    1.4636  -10.2903   -4.4755 H   0  0  0  0  0  0  0  0  0  0  0  0
    1.7030  -12.4974   -4.7177 H   0  0  0  0  0  0  0  0  0  0  0  0
    0.9084  -12.9052   -3.3395 H   0  0  0  0  0  0  0  0  0  0  0  0
    3.1299  -11.6072    1.7614 H   0  0  0  0  0  0  0  0  0  0  0  0
    5.7212  -11.4643    0.2767 H   0  0  0  0  0  0  0  0  0  0  0  0
    5.9969  -10.0497   -0.4602 H   0  0  0  0  0  0  0  0  0  0  0  0
   -4.2597   -7.0665   -0.6549 H   0  0  0  0  0  0  0  0  0  0  0  0
   -2.7724   -6.4375   -0.7860 H   0  0  0  0  0  0  0  0  0  0  0  0
   -5.3760   -4.0875   -1.9133 H   0  0  0  0  0  0  0  0  0  0  0  0
   -6.4158   -4.6207   -0.5859 H   0  0  0  0  0  0  0  0  0  0  0  0
   -4.6998   -3.4319    1.6120 H   0  0  0  0  0  0  0  0  0  0  0  0
   -4.4595   -1.6104    2.4581 H   0  0  0  0  0  0  0  0  0  0  0  0
   -5.1766   -0.3171    1.4614 H   0  0  0  0  0  0  0  0  0  0  0  0
   -3.4154    0.7486    1.7662 H   0  0  0  0  0  0  0  0  0  0  0  0
  1  2  1  0  0  0  0
  3  1  1  0  0  0  0
  4  3  1  0  0  0  0
  4  5  1  0  0  0  0
  6  4  1  0  0  0  0
  6  7  1  0  0  0  0
  8  6  1  0  0  0  0
  8  9  1  0  0  0  0
 10  8  1  0  0  0  0
 10 11  1  0  0  0  0
 12 10  1  0  0  0  0
 13 10  1  0  0  0  0
 14 13  1  0  0  0  0
 14 15  1  0  0  0  0
 14  4  1  0  0  0  0
 16 14  1  0  0  0  0
 17  8  1  0  0  0  0
 18  6  1  0  0  0  0
 19 18  1  0  0  0  0
 19 20  1  0  0  0  0
 21 19  1  0  0  0  0
 21 22  1  0  0  0  0
 23 21  1  0  0  0  0
 24 21  1  0  0  0  0
 24 25  1  0  0  0  0
 26 24  1  0  0  0  0
 26 27  1  0  0  0  0
 28 26  1  0  0  0  0
 28 19  1  0  0  0  0
 29 26  1  0  0  0  0
 30 29  1  0  0  0  0
 31 24  1  0  0  0  0
 32 31  1  0  0  0  0
 32 33  1  0  0  0  0
 34 32  1  0  0  0  0
 34 35  1  0  0  0  0
 36 34  1  0  0  0  0
 36 37  1  0  0  0  0
 38 36  1  0  0  0  0
 38 39  1  0  0  0  0
 40 38  1  0  0  0  0
 41 40  1  0  0  0  0
 41 42  1  0  0  0  0
 43 41  1  0  0  0  0
 43 44  1  0  0  0  0
 45 43  1  0  0  0  0
 45 46  1  0  0  0  0
 47 45  1  0  0  0  0
 47 48  1  0  0  0  0
 49 47  1  0  0  0  0
 49 50  1  0  0  0  0
 51 49  1  0  0  0  0
 52 51  1  0  0  0  0
 53 49  1  0  0  0  0
 53 41  1  0  0  0  0
 54 47  1  0  0  0  0
 55 45  1  0  0  0  0
 56 43  1  0  0  0  0
 57 38  1  0  0  0  0
 57 58  1  0  0  0  0
 59 57  1  0  0  0  0
 59 32  1  0  0  0  0
 60 57  1  0  0  0  0
 61 60  1  0  0  0  0
 62 36  1  0  0  0  0
 63 34  1  0  0  0  0
 64  1  1  0  0  0  0
 64 65  1  0  0  0  0
 66 64  1  0  0  0  0
 67 64  1  0  0  0  0
 68 67  1  0  0  0  0
 68 69  1  0  0  0  0
 70 68  1  0  0  0  0
 71 68  1  0  0  0  0
 71 72  1  0  0  0  0
 73 71  1  0  0  0  0
 73  1  1  0  0  0  0
 74 71  1  0  0  0  0
 75 74  1  0  0  0  0
 12 76  1  0  0  0  0
 12 77  1  0  0  0  0
 13 78  1  0  0  0  0
 13 79  1  0  0  0  0
 16 80  1  0  0  0  0
 16 81  1  0  0  0  0
 17 82  1  0  0  0  0
 23 83  1  0  0  0  0
 29 84  1  0  0  0  0
 29 85  1  0  0  0  0
 30 86  1  0  0  0  0
 51 87  1  0  0  0  0
 51 88  1  0  0  0  0
 52 89  1  0  0  0  0
 54 90  1  0  0  0  0
 55 91  1  0  0  0  0
 56 92  1  0  0  0  0
 60 93  1  0  0  0  0
 60 94  1  0  0  0  0
 61 95  1  0  0  0  0
 61 96  1  0  0  0  0
 62 97  1  0  0  0  0
 63 98  1  0  0  0  0
 63 99  1  0  0  0  0
 66100  1  0  0  0  0
 66101  1  0  0  0  0
 67102  1  0  0  0  0
 67103  1  0  0  0  0
 70104  1  0  0  0  0
 74105  1  0  0  0  0
 74106  1  0  0  0  0
 75107  1  0  0  0  0
M  END
>  <energy>
707.48112087834033

$$$$
