4K32_GET_A_101
 OpenBabel10091713583D
Coordinates from PDB:4K32:A:101 Model:1 without hydrogens
 34 36  0  0  0  0  0  0  0  0999 V2000
   -1.4060   17.3110   35.1600 C   0  0  2  0  0  0  0  0  0  0  0  0
   -1.9350   17.6330   36.4510 O   0  0  0  0  0  0  0  0  0  0  0  0
    0.1210   16.9090   35.3270 C   0  0  2  0  0  0  0  0  0  0  0  0
    0.2870   15.7310   36.2100 N   0  0  0  0  0  0  0  0  0  0  0  0
    0.9110   18.1130   35.8990 C   0  0  1  0  0  0  0  0  0  0  0  0
    2.2910   17.7720   36.0500 O   0  0  0  0  0  0  0  0  0  0  0  0
    0.7310   19.3120   34.9510 C   0  0  2  0  0  0  0  0  0  0  0  0
    1.4580   20.4290   35.4650 O   0  0  0  0  0  0  0  0  0  0  0  0
   -0.8020   19.6540   34.8120 C   0  0  2  0  0  0  0  0  0  0  0  0
   -1.5540   18.4890   34.2990 O   0  0  0  0  0  0  0  0  0  0  0  0
   -1.0350   20.8470   33.8520 C   0  0  2  0  0  0  0  0  0  0  0  0
   -2.4330   21.1270   33.7580 O   0  0  0  0  0  0  0  0  0  0  0  0
   -0.5060   20.5430   32.4590 C   0  0  0  0  0  0  0  0  0  0  0  0
   -5.5350   16.5800   38.5120 C   0  0  2  0  0  0  0  0  0  0  0  0
   -6.9560   16.4080   38.8240 N   0  0  0  0  0  0  0  0  0  0  0  0
   -5.3230   18.0730   38.1380 C   0  0  0  0  0  0  0  0  0  0  0  0
   -3.8160   18.2810   37.8270 C   0  0  2  0  0  0  0  0  0  0  0  0
   -3.5670   19.6870   37.4720 N   0  0  0  0  0  0  0  0  0  0  0  0
   -3.3600   17.3710   36.6550 C   0  0  2  0  0  0  0  0  0  0  0  0
   -3.6250   15.8800   37.0350 C   0  0  2  0  0  0  0  0  0  0  0  0
   -3.2140   15.0410   35.9470 O   0  0  0  0  0  0  0  0  0  0  0  0
   -5.1310   15.6390   37.3000 C   0  0  1  0  0  0  0  0  0  0  0  0
   -5.2890   14.2430   37.6550 O   0  0  0  0  0  0  0  0  0  0  0  0
   -6.4750   13.5880   37.1470 C   0  0  2  0  0  0  0  0  0  0  0  0
   -7.0160   12.6900   38.3210 C   0  0  2  0  0  0  0  0  0  0  0  0
   -7.3420   13.5020   39.4380 O   0  0  0  0  0  0  0  0  0  0  0  0
   -5.9180   11.6250   38.6990 C   0  0  1  0  0  0  0  0  0  0  0  0
   -6.3860   10.7540   39.8200 N   0  0  0  0  0  0  0  0  0  0  0  0
   -5.7610   11.2160   41.0780 C   0  0  0  0  0  0  0  0  0  0  0  0
   -5.6100   10.7630   37.4370 C   0  0  2  0  0  0  0  0  0  0  0  0
   -6.8060   10.0970   37.0350 O   0  0  0  0  0  0  0  0  0  0  0  0
   -4.5440    9.7070   37.7180 C   0  0  0  0  0  0  0  0  0  0  0  0
   -5.1270   11.6990   36.2830 C   0  0  0  0  0  0  0  0  0  0  0  0
   -6.1360   12.7380   35.9880 O   0  0  0  0  0  0  0  0  0  0  0  0
  1  2  1  1  0  0  0
  1  3  1  0  0  0  0
  1 10  1  0  0  0  0
  3  4  1  1  0  0  0
  3  5  1  0  0  0  0
  5  6  1  6  0  0  0
  5  7  1  0  0  0  0
  7  8  1  1  0  0  0
  7  9  1  0  0  0  0
  9 10  1  0  0  0  0
  9 11  1  6  0  0  0
 11 12  1  0  0  0  0
 11 13  1  6  0  0  0
 14 15  1  6  0  0  0
 14 16  1  0  0  0  0
 14 22  1  0  0  0  0
 16 17  1  0  0  0  0
 17 18  1  6  0  0  0
 17 19  1  0  0  0  0
 19  2  1  1  0  0  0
 19 20  1  0  0  0  0
 20 21  1  6  0  0  0
 20 22  1  0  0  0  0
 22 23  1  1  0  0  0
 24 23  1  1  0  0  0
 24 25  1  0  0  0  0
 24 34  1  0  0  0  0
 25 26  1  1  0  0  0
 25 27  1  0  0  0  0
 27 28  1  1  0  0  0
 27 30  1  0  0  0  0
 28 29  1  0  0  0  0
 30 31  1  0  0  0  0
 30 32  1  1  0  0  0
 30 33  1  0  0  0  0
 33 34  1  0  0  0  0
A    1
C11
A    2
O11
A    3
C21
A    4
N21
A    5
C31
A    6
O31
A    7
C41
A    8
O41
A    9
C51
A   10
O51
A   11
C61
A   12
O61
A   13
C71
A   14
C12
A   15
N12
A   16
C22
A   17
C32
A   18
N32
A   19
C42
A   20
C52
A   21
O52
A   22
C62
A   23
O62
A   24
C13
A   25
C23
A   26
O23
A   27
C33
A   28
N33
A   29
C93
A   30
C43
A   31
O43
A   32
C83
A   33
C53
A   34
O53
M  END
>  <InstanceId>
4K32_GET_A_101

>  <ChemCompId>
GET

>  <PdbId>
4K32

>  <ChainId>
A

>  <ResidueNumber>
101

>  <InsertionCode>


>  <Model>
1

>  <AltIds>


>  <MissingHeavyAtoms>
0

>  <ObservedFormula>
C20 N4 O10

>  <Name>
GENETICIN

>  <SystematicName>
(2R,3S,4R,5R,6S)-5-amino-6-[(1R,2S,3S,4R,6S)-4,6-diamino-3-[(2R,3R,4R,5R)-3,5-dihydroxy-5-methyl-4-methylamino-oxan-2-yl]oxy-2-hydroxy-cyclohexyl]oxy-2-(1-hydroxyethyl)oxane-3,4-diol

>  <Synonyms>
G418

>  <Type>
NON-POLYMER

>  <Formula>
C20 H40 N4 O10

>  <MolecularWeight>
496.552

>  <ModifiedDate>
2011-06-04

>  <Parent>


>  <OneLetterCode>


>  <SubcomponentList>


>  <AmbiguousFlag>
N

>  <InChI>
InChI=1S/C20H40N4O10/c1-6(25)14-11(27)10(26)9(23)18(32-14)33-15-7(21)4-8(22)16(12(15)28)34-19-13(29)17(24-3)20(2,30)5-31-19/h6-19,24-30H,4-5,21-23H2,1-3H3/t6-,7+,8-,9-,10-,11+,12+,13-,14-,15-,16+,17-,18-,19-,20+/m1/s1

>  <InChIKey>
BRZYSWJRSDMWLG-DJWUNRQOSA-N

>  <SMILES>
C[C@H]([C@@H]1[C@H]([C@@H]([C@H]([C@H](O1)O[C@@H]2[C@H](C[C@H]([C@@H]([C@H]2O)O[C@@H]3[C@@H]([C@H]([C@@](CO3)(C)O)NC)O)N)N)N)O)O)O

$$$$
