@<TRIPOS>MOLECULE
4K32_GET_A_101
 34 36 0 0 0
SMALL
GASTEIGER
****
Coordinates from PDB:4K32:A:101 Model:1 without hydrogens
@<TRIPOS>ATOM
      1 C          -1.4060   17.3110   35.1600 C.3     1  UNL1        0.2561
      2 O          -1.9350   17.6330   36.4510 O.3     1  UNL1       -0.3277
      3 C           0.1210   16.9090   35.3270 C.3     1  UNL1        0.1807
      4 N           0.2870   15.7310   36.2100 N.3     1  UNL1       -0.1248
      5 C           0.9110   18.1130   35.8990 C.3     1  UNL1        0.2070
      6 O           2.2910   17.7720   36.0500 O.3     1  UNL1       -0.2186
      7 C           0.7310   19.3120   34.9510 C.3     1  UNL1        0.2132
      8 O           1.4580   20.4290   35.4650 O.3     1  UNL1       -0.2176
      9 C          -0.8020   19.6540   34.8120 C.3     1  UNL1        0.1807
     10 O          -1.5540   18.4890   34.2990 O.3     1  UNL1       -0.3265
     11 C          -1.0350   20.8470   33.8520 C.3     1  UNL1        0.1817
     12 O          -2.4330   21.1270   33.7580 O.3     1  UNL1       -0.2204
     13 C          -0.5060   20.5430   32.4590 C.3     1  UNL1        0.0382
     14 C          -5.5350   16.5800   38.5120 C.3     1  UNL1        0.1231
     15 N          -6.9560   16.4080   38.8240 N.3     1  UNL1       -0.1302
     16 C          -5.3230   18.0730   38.1380 C.3     1  UNL1        0.0432
     17 C          -3.8160   18.2810   37.8270 C.3     1  UNL1        0.1231
     18 N          -3.5670   19.6870   37.4720 N.3     1  UNL1       -0.1302
     19 C          -3.3600   17.3710   36.6550 C.3     1  UNL1        0.1680
     20 C          -3.6250   15.8800   37.0350 C.3     1  UNL1        0.2088
     21 O          -3.2140   15.0410   35.9470 O.3     1  UNL1       -0.2178
     22 C          -5.1310   15.6390   37.3000 C.3     1  UNL1        0.1680
     23 O          -5.2890   14.2430   37.6550 O.3     1  UNL1       -0.3269
     24 C          -6.4750   13.5880   37.1470 C.3     1  UNL1        0.2683
     25 C          -7.0160   12.6900   38.3210 C.3     1  UNL1        0.2262
     26 O          -7.3420   13.5020   39.4380 O.3     1  UNL1       -0.2161
     27 C          -5.9180   11.6250   38.6990 C.3     1  UNL1        0.1384
     28 N          -6.3860   10.7540   39.8200 N.3     1  UNL1       -0.2126
     29 C          -5.7610   11.2160   41.0780 C.3     1  UNL1        0.1076
     30 C          -5.6100   10.7630   37.4370 C.3     1  UNL1        0.1710
     31 O          -6.8060   10.0970   37.0350 O.3     1  UNL1       -0.2215
     32 C          -4.5440    9.7070   37.7180 C.3     1  UNL1        0.0371
     33 C          -5.1270   11.6990   36.2830 C.3     1  UNL1        0.1765
     34 O          -6.1360   12.7380   35.9880 O.3     1  UNL1       -0.3259
@<TRIPOS>BOND
     1     1     2    1
     2     1     3    1
     3     1    10    1
     4     3     4    1
     5     3     5    1
     6     5     6    1
     7     5     7    1
     8     7     8    1
     9     7     9    1
    10     9    10    1
    11     9    11    1
    12    11    12    1
    13    11    13    1
    14    14    15    1
    15    14    16    1
    16    14    22    1
    17    16    17    1
    18    17    18    1
    19    17    19    1
    20    19     2    1
    21    19    20    1
    22    20    21    1
    23    20    22    1
    24    22    23    1
    25    24    23    1
    26    24    25    1
    27    24    34    1
    28    25    26    1
    29    25    27    1
    30    27    28    1
    31    27    30    1
    32    28    29    1
    33    30    31    1
    34    30    32    1
    35    30    33    1
    36    33    34    1
