4QK9_2BA_A_201
 OpenBabel03221817323D

 68 74  0  0  1  0  0  0  0  0999 V2000
    0.0000    0.0000   -0.0000 P   0  0  1  0  0  0  0  0  0  0  0  0
   -0.0000   -0.0000   -0.0000 O   0  0  0  0  0  0  0  0  0  0  0  0
   -0.0000   -0.0000   -0.0000 O   0  0  0  0  0  0  0  0  0  0  0  0
   -0.0000   -0.0000   -0.0000 O   0  0  0  0  0  0  0  0  0  0  0  0
   -0.0000   -0.0000   -0.0000 C   0  0  0  0  0  0  0  0  0  0  0  0
   -0.0000   -0.0000   -0.0000 C   0  0  1  0  0  0  0  0  0  0  0  0
   -0.0000   -0.0000   -0.0000 H   0  0  0  0  0  0  0  0  0  0  0  0
   -0.0000   -0.0000   -0.0000 O   0  0  0  0  0  0  0  0  0  0  0  0
   -0.0000   -0.0000   -0.0000 C   0  0  2  0  0  0  0  0  0  0  0  0
   -0.0000   -0.0000   -0.0000 H   0  0  0  0  0  0  0  0  0  0  0  0
   -0.0000   -0.0000   -0.0000 C   0  0  1  0  0  0  0  0  0  0  0  0
   -0.0000   -0.0000   -0.0000 H   0  0  0  0  0  0  0  0  0  0  0  0
   -0.0000   -0.0000   -0.0000 C   0  0  2  0  0  0  0  0  0  0  0  0
   -0.0000   -0.0000   -0.0000 H   0  0  0  0  0  0  0  0  0  0  0  0
   -0.0000   -0.0000   -0.0000 O   0  0  0  0  0  0  0  0  0  0  0  0
   -0.0000   -0.0000   -0.0000 P   0  0  2  0  0  0  0  0  0  0  0  0
   -0.0000   -0.0000   -0.0000 O   0  0  0  0  0  0  0  0  0  0  0  0
   -0.0000   -0.0000   -0.0000 O   0  0  0  0  0  0  0  0  0  0  0  0
   -0.0000   -0.0000   -0.0000 O   0  0  0  0  0  0  0  0  0  0  0  0
   -0.0000   -0.0000   -0.0000 C   0  0  0  0  0  0  0  0  0  0  0  0
   -0.0000   -0.0000   -0.0000 C   0  0  1  0  0  0  0  0  0  0  0  0
   -0.0000   -0.0000   -0.0000 H   0  0  0  0  0  0  0  0  0  0  0  0
   -0.0000   -0.0000   -0.0000 O   0  0  0  0  0  0  0  0  0  0  0  0
   -0.0000   -0.0000   -0.0000 C   0  0  2  0  0  0  0  0  0  0  0  0
   -0.0000   -0.0000   -0.0000 H   0  0  0  0  0  0  0  0  0  0  0  0
   -0.0000   -0.0000   -0.0000 C   0  0  1  0  0  0  0  0  0  0  0  0
   -0.0000   -0.0000   -0.0000 H   0  0  0  0  0  0  0  0  0  0  0  0
   -0.0000   -0.0000   -0.0000 C   0  0  2  0  0  0  0  0  0  0  0  0
   -0.0000   -0.0000   -0.0000 H   0  0  0  0  0  0  0  0  0  0  0  0
   -0.0000   -0.0000   -0.0000 O   0  0  0  0  0  0  0  0  0  0  0  0
   -0.0000   -0.0000   -0.0000 O   0  0  0  0  0  0  0  0  0  0  0  0
   -0.0000   -0.0000   -0.0000 N   0  0  0  0  0  0  0  0  0  0  0  0
   -0.0000   -0.0000   -0.0000 C   0  0  0  0  0  0  0  0  0  0  0  0
   -0.0000   -0.0000   -0.0000 N   0  0  0  0  0  0  0  0  0  0  0  0
   -0.0000   -0.0000   -0.0000 C   0  0  0  0  0  0  0  0  0  0  0  0
   -0.0000   -0.0000   -0.0000 C   0  0  0  0  0  0  0  0  0  0  0  0
   -0.0000   -0.0000   -0.0000 N   0  0  0  0  0  0  0  0  0  0  0  0
   -0.0000   -0.0000   -0.0000 N   0  0  0  0  0  0  0  0  0  0  0  0
   -0.0000   -0.0000   -0.0000 C   0  0  0  0  0  0  0  0  0  0  0  0
   -0.0000   -0.0000   -0.0000 N   0  0  0  0  0  0  0  0  0  0  0  0
   -0.0000   -0.0000   -0.0000 C   0  0  0  0  0  0  0  0  0  0  0  0
   -0.0000   -0.0000   -0.0000 O   0  0  0  0  0  0  0  0  0  0  0  0
   -0.0000   -0.0000   -0.0000 N   0  0  0  0  0  0  0  0  0  0  0  0
   -0.0000    0.0000    0.0000 C   0  0  0  0  0  0  0  0  0  0  0  0
   -0.0000   -0.0000   -0.0000 N   0  0  0  0  0  0  0  0  0  0  0  0
   -0.0000   -0.0000   -0.0000 C   0  0  0  0  0  0  0  0  0  0  0  0
   -0.0000   -0.0000   -0.0000 C   0  0  0  0  0  0  0  0  0  0  0  0
   -0.0000   -0.0000   -0.0000 N   0  0  0  0  0  0  0  0  0  0  0  0
   -0.0000   -0.0000   -0.0000 N   0  0  0  0  0  0  0  0  0  0  0  0
   -0.0000   -0.0000   -0.0000 C   0  0  0  0  0  0  0  0  0  0  0  0
   -0.0000   -0.0000   -0.0000 N   0  0  0  0  0  0  0  0  0  0  0  0
   -0.0000   -0.0000   -0.0000 C   0  0  0  0  0  0  0  0  0  0  0  0
    0.0000    0.0000    0.0000 H   0  0  0  0  0  0  0  0  0  0  0  0
    0.0000    0.0000    0.0000 H   0  0  0  0  0  0  0  0  0  0  0  0
    0.0000    0.0000    0.0000 H   0  0  0  0  0  0  0  0  0  0  0  0
    0.0000    0.0000    0.0000 H   0  0  0  0  0  0  0  0  0  0  0  0
    0.0000    0.0000    0.0000 H   0  0  0  0  0  0  0  0  0  0  0  0
    0.0000    0.0000    0.0000 H   0  0  0  0  0  0  0  0  0  0  0  0
    0.0000    0.0000    0.0000 H   0  0  0  0  0  0  0  0  0  0  0  0
   -0.0000   -0.0000   -0.0000 H   0  0  0  0  0  0  0  0  0  0  0  0
   -0.0000   -0.0000   -0.0000 H   0  0  0  0  0  0  0  0  0  0  0  0
   -0.0000   -0.0000   -0.0000 H   0  0  0  0  0  0  0  0  0  0  0  0
   -0.0000   -0.0000   -0.0000 H   0  0  0  0  0  0  0  0  0  0  0  0
    0.0000    0.0000    0.0000 H   0  0  0  0  0  0  0  0  0  0  0  0
   -0.0000   -0.0000   -0.0000 H   0  0  0  0  0  0  0  0  0  0  0  0
   -0.0000   -0.0000   -0.0000 H   0  0  0  0  0  0  0  0  0  0  0  0
   -0.0000   -0.0000   -0.0000 H   0  0  0  0  0  0  0  0  0  0  0  0
   -0.0000   -0.0000   -0.0000 H   0  0  0  0  0  0  0  0  0  0  0  0
  1  4  1  1  0  0  0
  1 30  1  0  0  0  0
  1  3  1  0  0  0  0
  1  2  2  0  0  0  0
  3 53  1  0  0  0  0
  4  5  1  0  0  0  0
  5  6  1  0  0  0  0
  5 54  1  0  0  0  0
  5 55  1  0  0  0  0
  6  8  1  0  0  0  0
  6 13  1  1  0  0  0
  6  7  1  0  0  0  0
  8  9  1  0  0  0  0
  9 11  1  0  0  0  0
  9 10  1  1  0  0  0
  9 43  1  0  0  0  0
 11 13  1  0  0  0  0
 11 12  1  1  0  0  0
 11 42  1  0  0  0  0
 13 15  1  0  0  0  0
 13 14  1  1  0  0  0
 16 15  1  1  0  0  0
 16 19  1  0  0  0  0
 16 17  2  0  0  0  0
 16 18  1  0  0  0  0
 18 56  1  0  0  0  0
 19 20  1  0  0  0  0
 20 21  1  0  0  0  0
 20 57  1  0  0  0  0
 20 58  1  0  0  0  0
 21 23  1  0  0  0  0
 21 28  1  1  0  0  0
 21 22  1  0  0  0  0
 23 24  1  0  0  0  0
 24 26  1  0  0  0  0
 24 25  1  1  0  0  0
 24 32  1  0  0  0  0
 26 28  1  0  0  0  0
 26 31  1  0  0  0  0
 26 27  1  1  0  0  0
 28 30  1  0  0  0  0
 28 29  1  1  0  0  0
 31 59  1  0  0  0  0
 32 33  1  0  0  0  0
 32 41  1  0  0  0  0
 33 34  2  0  0  0  0
 33 60  1  0  0  0  0
 34 35  1  0  0  0  0
 35 36  2  0  0  0  0
 35 41  1  0  0  0  0
 36 37  1  0  0  0  0
 36 38  1  0  0  0  0
 37 61  1  0  0  0  0
 37 62  1  0  0  0  0
 38 39  2  0  0  0  0
 39 40  1  0  0  0  0
 39 63  1  0  0  0  0
 40 41  2  0  0  0  0
 42 64  1  0  0  0  0
 43 44  1  0  0  0  0
 43 52  1  0  0  0  0
 44 45  2  0  0  0  0
 44 65  1  0  0  0  0
 45 46  1  0  0  0  0
 46 47  2  0  0  0  0
 46 52  1  0  0  0  0
 47 48  1  0  0  0  0
 47 49  1  0  0  0  0
 48 66  1  0  0  0  0
 48 67  1  0  0  0  0
 49 50  2  0  0  0  0
 50 51  1  0  0  0  0
 50 68  1  0  0  0  0
 51 52  2  0  0  0  0
M  END
$$$$
