@<TRIPOS>MOLECULE
4QK9_2BA_A_201
 68 74 0 0 0
SMALL
GASTEIGER

@<TRIPOS>ATOM
      1 P           0.0000    0.0000   -0.0000 P.3     1  UNL1        0.4754
      2 O          -0.0000   -0.0000   -0.0000 O.2     1  UNL1       -0.2273
      3 O          -0.0000   -0.0000   -0.0000 O.3     1  UNL1       -0.3025
      4 O          -0.0000   -0.0000   -0.0000 O.3     1  UNL1       -0.2840
      5 C          -0.0000   -0.0000   -0.0000 C.3     1  UNL1        0.0879
      6 C          -0.0000   -0.0000   -0.0000 C.3     1  UNL1        0.1142
      7 H          -0.0000   -0.0000   -0.0000 H       1  UNL1        0.0647
      8 O          -0.0000   -0.0000   -0.0000 O.3     1  UNL1       -0.3456
      9 C          -0.0000   -0.0000   -0.0000 C.3     1  UNL1        0.1667
     10 H          -0.0000   -0.0000   -0.0000 H       1  UNL1        0.0866
     11 C          -0.0000   -0.0000   -0.0000 C.3     1  UNL1        0.1294
     12 H          -0.0000   -0.0000   -0.0000 H       1  UNL1        0.0666
     13 C          -0.0000   -0.0000   -0.0000 C.3     1  UNL1        0.1283
     14 H          -0.0000   -0.0000   -0.0000 H       1  UNL1        0.0656
     15 O          -0.0000   -0.0000   -0.0000 O.3     1  UNL1       -0.2779
     16 P          -0.0000   -0.0000   -0.0000 P.3     1  UNL1        0.4754
     17 O          -0.0000   -0.0000   -0.0000 O.2     1  UNL1       -0.2273
     18 O          -0.0000   -0.0000   -0.0000 O.3     1  UNL1       -0.3025
     19 O          -0.0000   -0.0000   -0.0000 O.3     1  UNL1       -0.2840
     20 C          -0.0000   -0.0000   -0.0000 C.3     1  UNL1        0.0879
     21 C          -0.0000   -0.0000   -0.0000 C.3     1  UNL1        0.1142
     22 H          -0.0000   -0.0000   -0.0000 H       1  UNL1        0.0647
     23 O          -0.0000   -0.0000   -0.0000 O.3     1  UNL1       -0.3456
     24 C          -0.0000   -0.0000   -0.0000 C.3     1  UNL1        0.1667
     25 H          -0.0000   -0.0000   -0.0000 H       1  UNL1        0.0866
     26 C          -0.0000   -0.0000   -0.0000 C.3     1  UNL1        0.1294
     27 H          -0.0000   -0.0000   -0.0000 H       1  UNL1        0.0666
     28 C          -0.0000   -0.0000   -0.0000 C.3     1  UNL1        0.1283
     29 H          -0.0000   -0.0000   -0.0000 H       1  UNL1        0.0656
     30 O          -0.0000   -0.0000   -0.0000 O.3     1  UNL1       -0.2779
     31 O          -0.0000   -0.0000   -0.0000 O.3     1  UNL1       -0.3846
     32 N          -0.0000   -0.0000   -0.0000 N.ar    1  UNL1       -0.2855
     33 C          -0.0000   -0.0000   -0.0000 C.ar    1  UNL1        0.1004
     34 N          -0.0000   -0.0000   -0.0000 N.ar    1  UNL1       -0.2306
     35 C          -0.0000   -0.0000   -0.0000 C.ar    1  UNL1        0.1473
     36 C          -0.0000   -0.0000   -0.0000 C.ar    1  UNL1        0.1472
     37 N          -0.0000   -0.0000   -0.0000 N.pl3   1  UNL1       -0.3413
     38 N          -0.0000   -0.0000   -0.0000 N.ar    1  UNL1       -0.2188
     39 C          -0.0000   -0.0000   -0.0000 C.ar    1  UNL1        0.1205
     40 N          -0.0000   -0.0000   -0.0000 N.ar    1  UNL1       -0.2159
     41 C          -0.0000   -0.0000   -0.0000 C.ar    1  UNL1        0.1674
     42 O          -0.0000   -0.0000   -0.0000 O.3     1  UNL1       -0.3846
     43 N          -0.0000   -0.0000   -0.0000 N.ar    1  UNL1       -0.2855
     44 C          -0.0000    0.0000    0.0000 C.ar    1  UNL1        0.1004
     45 N          -0.0000   -0.0000   -0.0000 N.ar    1  UNL1       -0.2306
     46 C          -0.0000   -0.0000   -0.0000 C.ar    1  UNL1        0.1473
     47 C          -0.0000   -0.0000   -0.0000 C.ar    1  UNL1        0.1472
     48 N          -0.0000   -0.0000   -0.0000 N.pl3   1  UNL1       -0.3413
     49 N          -0.0000   -0.0000   -0.0000 N.ar    1  UNL1       -0.2188
     50 C          -0.0000   -0.0000   -0.0000 C.ar    1  UNL1        0.1205
     51 N          -0.0000   -0.0000   -0.0000 N.ar    1  UNL1       -0.2159
     52 C          -0.0000   -0.0000   -0.0000 C.ar    1  UNL1        0.1674
     53 H           0.0000    0.0000    0.0000 H       1  UNL1        0.2220
     54 H           0.0000    0.0000    0.0000 H       1  UNL1        0.0592
     55 H           0.0000    0.0000    0.0000 H       1  UNL1        0.0592
     56 H           0.0000    0.0000    0.0000 H       1  UNL1        0.2220
     57 H           0.0000    0.0000    0.0000 H       1  UNL1        0.0592
     58 H           0.0000    0.0000    0.0000 H       1  UNL1        0.0592
     59 H           0.0000    0.0000    0.0000 H       1  UNL1        0.2101
     60 H          -0.0000   -0.0000   -0.0000 H       1  UNL1        0.1030
     61 H          -0.0000   -0.0000   -0.0000 H       1  UNL1        0.1438
     62 H          -0.0000   -0.0000   -0.0000 H       1  UNL1        0.1438
     63 H          -0.0000   -0.0000   -0.0000 H       1  UNL1        0.1048
     64 H           0.0000    0.0000    0.0000 H       1  UNL1        0.2101
     65 H          -0.0000   -0.0000   -0.0000 H       1  UNL1        0.1030
     66 H          -0.0000   -0.0000   -0.0000 H       1  UNL1        0.1438
     67 H          -0.0000   -0.0000   -0.0000 H       1  UNL1        0.1438
     68 H          -0.0000   -0.0000   -0.0000 H       1  UNL1        0.1048
@<TRIPOS>BOND
     1     1     4    1
     2     1    30    1
     3     1     3    1
     4     1     2    2
     5     3    53    1
     6     4     5    1
     7     5     6    1
     8     5    54    1
     9     5    55    1
    10     6     8    1
    11     6    13    1
    12     6     7    1
    13     8     9    1
    14     9    11    1
    15     9    10    1
    16     9    43    1
    17    11    13    1
    18    11    12    1
    19    11    42    1
    20    13    15    1
    21    13    14    1
    22    16    15    1
    23    16    19    1
    24    16    17    2
    25    16    18    1
    26    18    56    1
    27    19    20    1
    28    20    21    1
    29    20    57    1
    30    20    58    1
    31    21    23    1
    32    21    28    1
    33    21    22    1
    34    23    24    1
    35    24    26    1
    36    24    25    1
    37    24    32    1
    38    26    28    1
    39    26    31    1
    40    26    27    1
    41    28    30    1
    42    28    29    1
    43    31    59    1
    44    32    33   ar
    45    32    41   ar
    46    33    34   ar
    47    33    60    1
    48    34    35   ar
    49    35    36   ar
    50    35    41   ar
    51    36    37    1
    52    36    38   ar
    53    37    61    1
    54    37    62    1
    55    38    39   ar
    56    39    40   ar
    57    39    63    1
    58    40    41   ar
    59    42    64    1
    60    43    44   ar
    61    43    52   ar
    62    44    45   ar
    63    44    65    1
    64    45    46   ar
    65    46    47   ar
    66    46    52   ar
    67    47    48    1
    68    47    49   ar
    69    48    66    1
    70    48    67    1
    71    49    50   ar
    72    50    51   ar
    73    50    68    1
    74    51    52   ar
