@<TRIPOS>MOLECULE
3GX3_SAH_A_301
 46 48 0 0 0
SMALL
GASTEIGER

@<TRIPOS>ATOM
      1 N1          8.0489    3.7929    1.1081 N.3     1  <1>        -0.3184
      2 C1          7.7318    5.1548    0.5930 C.3     1  <1>         0.1040
      3 H1          8.3985    5.3367   -0.2585 H       1  <1>         0.0574
      4 C2          6.2830    5.3129    0.1157 C.3     1  <1>        -0.0183
      5 C3          5.2312    5.1108    1.2066 C.3     1  <1>        -0.0043
      6 S1          3.5685    5.3628    0.5036 S.3     1  <1>        -0.1580
      7 C4          2.5348    5.0934    1.9954 C.3     1  <1>         0.0226
      8 C5          2.8298    6.0498    3.1529 C.3     1  <1>         0.0986
      9 H2          3.8583    5.9085    3.5049 H       1  <1>         0.0632
     10 O1          2.6670    7.4229    2.7607 O.3     1  <1>        -0.3471
     11 C6          2.5428    8.1547    3.9896 C.3     1  <1>         0.1666
     12 H3          3.5484    8.3732    4.3740 H       1  <1>         0.0866
     13 C7          1.7419    7.2508    4.9384 C.3     1  <1>         0.1285
     14 H4          0.6814    7.5286    4.9695 H       1  <1>         0.0665
     15 C8          1.8702    5.8554    4.3258 C.3     1  <1>         0.1121
     16 H5          0.8867    5.5222    3.9759 H       1  <1>         0.0647
     17 O2          2.3626    4.8901    5.2487 O.3     1  <1>        -0.3865
     18 O3          2.2338    7.2681    6.2834 O.3     1  <1>        -0.3847
     19 N2          1.8907    9.4248    3.7522 N.ar    1  <1>        -0.2855
     20 C9          1.4207    9.9225    2.5686 C.ar    1  <1>         0.1004
     21 N3          0.7712   11.0564    2.7385 N.ar    1  <1>        -0.2306
     22 C10         0.8571   11.3140    4.0917 C.ar    1  <1>         0.1473
     23 C11         0.3532   12.3481    4.8957 C.ar    1  <1>         0.1472
     24 N4         -0.4378   13.3763    4.4023 N.pl3   1  <1>        -0.3413
     25 N5          0.6522   12.3422    6.2159 N.ar    1  <1>        -0.2188
     26 C12         1.3816   11.3158    6.7056 C.ar    1  <1>         0.1205
     27 N6          1.8715   10.2394    6.0482 N.ar    1  <1>        -0.2159
     28 C13         1.5810   10.3246    4.7352 C.ar    1  <1>         0.1674
     29 C14         8.1317    6.1860    1.6642 C.2     1  <1>         0.3217
     30 O4          7.6683    7.3071    1.7890 O.2     1  <1>        -0.2493
     31 O5          9.1026    5.6844    2.4751 O.3     1  <1>        -0.4795
     32 H6          7.8020    3.1149    0.3812 H       1  <1>         0.1190
     33 H7          7.4201    3.5693    1.8862 H       1  <1>         0.1190
     34 H8          6.1062    4.6067   -0.7064 H       1  <1>         0.0293
     35 H9          6.1720    6.3206   -0.3074 H       1  <1>         0.0293
     36 H10         5.3965    5.8272    2.0132 H       1  <1>         0.0377
     37 H11         5.2790    4.0966    1.6132 H       1  <1>         0.0377
     38 H12         2.6433    4.0515    2.3123 H       1  <1>         0.0402
     39 H13         1.5008    5.2319    1.6595 H       1  <1>         0.0402
     40 H14         2.3528    5.3345    6.1247 H       1  <1>         0.2100
     41 H15         2.1705    8.2031    6.5836 H       1  <1>         0.2101
     42 H16         1.5671    9.4171    1.6208 H       1  <1>         0.1030
     43 H17        -0.3581   13.5051    3.3995 H       1  <1>         0.1438
     44 H18        -0.4229   14.1983    4.9900 H       1  <1>         0.1438
     45 H19         1.5982   11.3615    7.7699 H       1  <1>         0.1048
     46 H20         9.2726    4.7593    2.1683 H       1  <1>         0.2951
@<TRIPOS>BOND
     1     1     2    1
     2     1    32    1
     3     1    33    1
     4     2     3    1
     5     2     4    1
     6     2    29    1
     7     4     5    1
     8     4    34    1
     9     4    35    1
    10     5     6    1
    11     5    36    1
    12     5    37    1
    13     6     7    1
    14     7     8    1
    15     7    38    1
    16     7    39    1
    17     8     9    1
    18     8    10    1
    19     8    15    1
    20    10    11    1
    21    11    13    1
    22    11    19    1
    23    11    12    1
    24    13    14    1
    25    13    15    1
    26    13    18    1
    27    15    16    1
    28    15    17    1
    29    17    40    1
    30    18    41    1
    31    19    20   ar
    32    19    28   ar
    33    20    21   ar
    34    20    42    1
    35    21    22   ar
    36    22    23   ar
    37    22    28   ar
    38    23    24    1
    39    23    25   ar
    40    24    43    1
    41    24    44    1
    42    25    26   ar
    43    26    27   ar
    44    26    45    1
    45    27    28   ar
    46    29    30    2
    47    29    31    1
    48    31    46    1
