REMARK  12 active torsions:
REMARK  status: ('A' for Active; 'I' for Inactive)
REMARK    1  A    between atoms: N1_1  and  C1_2 
REMARK    2  A    between atoms: C1_2  and  C2_3 
REMARK    3  A    between atoms: C1_2  and  C14_24 
REMARK    4  A    between atoms: C2_3  and  C3_4 
REMARK    5  A    between atoms: C3_4  and  S1_5 
REMARK    6  A    between atoms: S1_5  and  C4_6 
REMARK    7  A    between atoms: C4_6  and  C5_7 
REMARK    8  A    between atoms: C6_9  and  N2_14 
REMARK    9  A    between atoms: C7_10  and  O3_13 
REMARK   10  A    between atoms: C8_11  and  O2_12 
REMARK   11  A    between atoms: C11_18  and  N4_19 
REMARK   12  A    between atoms: C14_24  and  O5_26 
ROOT
ATOM      1  C5  <1> d           2.830   6.050   3.153  0.00  0.00     0.165 C 
ATOM      2  O1  <1> d           2.667   7.423   2.761  0.00  0.00    -0.355 OA
ATOM      3  C6  <1> d           2.543   8.155   3.990  0.00  0.00     0.262 C 
ATOM      4  C7  <1> d           1.742   7.251   4.938  0.00  0.00     0.198 C 
ATOM      5  C8  <1> d           1.870   5.855   4.326  0.00  0.00     0.180 C 
ENDROOT
BRANCH   1   6
ATOM      6  C4  <1> d           2.535   5.093   1.995  0.00  0.00     0.108 C 
BRANCH   6   7
ATOM      7  S1  <1> d           3.568   5.363   0.504  0.00  0.00    -0.166 SA
BRANCH   7   8
ATOM      8  C3  <1> d           5.231   5.111   1.207  0.00  0.00     0.076 C 
BRANCH   8   9
ATOM      9  C2  <1> d           6.283   5.313   0.116  0.00  0.00     0.056 C 
BRANCH   9  10
ATOM     10  C1  <1> d           7.732   5.155   0.593  0.00  0.00     0.315 C 
BRANCH  10  11
ATOM     11  N1  <1> d           8.049   3.793   1.108  0.00  0.00     0.093 N 
ATOM     12  H6  <1> d           7.802   3.115   0.381  0.00  0.00     0.314 HD
ATOM     13  H7  <1> d           7.420   3.569   1.886  0.00  0.00     0.314 HD
ENDBRANCH  10  11
BRANCH  10  14
ATOM     14  C14 <1> d           8.132   6.186   1.664  0.00  0.00     0.173 C 
ATOM     15  O4  <1> d           7.668   7.307   1.789  0.00  0.00    -0.648 OA
BRANCH  14  16
ATOM     16  O5  <1> d           9.103   5.684   2.475  0.00  0.00    -0.775 OA
ATOM     17  H20 <1> d           9.273   4.759   2.168  0.00  0.00     0.167 HD
ENDBRANCH  14  16
ENDBRANCH  10  14
ENDBRANCH   9  10
ENDBRANCH   8   9
ENDBRANCH   7   8
ENDBRANCH   6   7
ENDBRANCH   1   6
BRANCH   5  18
ATOM     18  O2  <1> d           2.363   4.890   5.249  0.00  0.00    -0.390 OA
ATOM     19  H14 <1> d           2.353   5.335   6.125  0.00  0.00     0.210 HD
ENDBRANCH   5  18
BRANCH   3  20
ATOM     20  N2  <1> d           1.891   9.425   3.752  0.00  0.00    -0.294 N 
ATOM     21  C9  <1> d           1.421   9.922   2.569  0.00  0.00     0.214 A 
ATOM     22  N3  <1> d           0.771  11.056   2.739  0.00  0.00    -0.236 NA
ATOM     23  C10 <1> d           0.857  11.314   4.092  0.00  0.00     0.149 A 
ATOM     24  C11 <1> d           0.353  12.348   4.896  0.00  0.00     0.155 A 
ATOM     25  C13 <1> d           1.581  10.325   4.735  0.00  0.00     0.167 A 
ATOM     26  N5  <1> d           0.652  12.342   6.216  0.00  0.00    -0.222 NA
ATOM     27  C12 <1> d           1.382  11.316   6.706  0.00  0.00     0.237 A 
ATOM     28  N6  <1> d           1.871  10.239   6.048  0.00  0.00    -0.222 NA
BRANCH  24  29
ATOM     29  N4  <1> d          -0.438  13.376   4.402  0.00  0.00    -0.382 N 
ATOM     30  H17 <1> d          -0.358  13.505   3.400  0.00  0.00     0.157 HD
ATOM     31  H18 <1> d          -0.423  14.198   4.990  0.00  0.00     0.157 HD
ENDBRANCH  24  29
ENDBRANCH   3  20
BRANCH   4  32
ATOM     32  O3  <1> d           2.234   7.268   6.283  0.00  0.00    -0.388 OA
ATOM     33  H15 <1> d           2.171   8.203   6.584  0.00  0.00     0.210 HD
ENDBRANCH   4  32
TORSDOF 12
