3GX3_SAH_A_301
 OpenBabel03221817303D

 46 48  0  0  1  0  0  0  0  0999 V2000
    8.0489    3.7929    1.1081 N   0  0  0  0  0  0  0  0  0  0  0  0
    7.7318    5.1548    0.5930 C   0  0  1  0  0  0  0  0  0  0  0  0
    8.3985    5.3367   -0.2585 H   0  0  0  0  0  0  0  0  0  0  0  0
    6.2830    5.3129    0.1157 C   0  0  0  0  0  0  0  0  0  0  0  0
    5.2312    5.1108    1.2066 C   0  0  0  0  0  0  0  0  0  0  0  0
    3.5685    5.3628    0.5036 S   0  0  0  0  0  0  0  0  0  0  0  0
    2.5348    5.0934    1.9954 C   0  0  0  0  0  0  0  0  0  0  0  0
    2.8298    6.0498    3.1529 C   0  0  1  0  0  0  0  0  0  0  0  0
    3.8583    5.9085    3.5049 H   0  0  0  0  0  0  0  0  0  0  0  0
    2.6670    7.4229    2.7607 O   0  0  0  0  0  0  0  0  0  0  0  0
    2.5428    8.1547    3.9896 C   0  0  2  0  0  0  0  0  0  0  0  0
    3.5484    8.3732    4.3740 H   0  0  0  0  0  0  0  0  0  0  0  0
    1.7419    7.2508    4.9384 C   0  0  1  0  0  0  0  0  0  0  0  0
    0.6814    7.5286    4.9695 H   0  0  0  0  0  0  0  0  0  0  0  0
    1.8702    5.8554    4.3258 C   0  0  2  0  0  0  0  0  0  0  0  0
    0.8867    5.5222    3.9759 H   0  0  0  0  0  0  0  0  0  0  0  0
    2.3626    4.8901    5.2487 O   0  0  0  0  0  0  0  0  0  0  0  0
    2.2338    7.2681    6.2834 O   0  0  0  0  0  0  0  0  0  0  0  0
    1.8907    9.4248    3.7522 N   0  0  0  0  0  0  0  0  0  0  0  0
    1.4207    9.9225    2.5686 C   0  0  0  0  0  0  0  0  0  0  0  0
    0.7712   11.0564    2.7385 N   0  0  0  0  0  0  0  0  0  0  0  0
    0.8571   11.3140    4.0917 C   0  0  0  0  0  0  0  0  0  0  0  0
    0.3532   12.3481    4.8957 C   0  0  0  0  0  0  0  0  0  0  0  0
   -0.4378   13.3763    4.4023 N   0  0  0  0  0  0  0  0  0  0  0  0
    0.6522   12.3422    6.2159 N   0  0  0  0  0  0  0  0  0  0  0  0
    1.3816   11.3158    6.7056 C   0  0  0  0  0  0  0  0  0  0  0  0
    1.8715   10.2394    6.0482 N   0  0  0  0  0  0  0  0  0  0  0  0
    1.5810   10.3246    4.7352 C   0  0  0  0  0  0  0  0  0  0  0  0
    8.1317    6.1860    1.6642 C   0  0  0  0  0  0  0  0  0  0  0  0
    7.6683    7.3071    1.7890 O   0  0  0  0  0  0  0  0  0  0  0  0
    9.1026    5.6844    2.4751 O   0  0  0  0  0  0  0  0  0  0  0  0
    7.8020    3.1149    0.3812 H   0  0  0  0  0  0  0  0  0  0  0  0
    7.4201    3.5693    1.8862 H   0  0  0  0  0  0  0  0  0  0  0  0
    6.1062    4.6067   -0.7064 H   0  0  0  0  0  0  0  0  0  0  0  0
    6.1720    6.3206   -0.3074 H   0  0  0  0  0  0  0  0  0  0  0  0
    5.3965    5.8272    2.0132 H   0  0  0  0  0  0  0  0  0  0  0  0
    5.2790    4.0966    1.6132 H   0  0  0  0  0  0  0  0  0  0  0  0
    2.6433    4.0515    2.3123 H   0  0  0  0  0  0  0  0  0  0  0  0
    1.5008    5.2319    1.6595 H   0  0  0  0  0  0  0  0  0  0  0  0
    2.3528    5.3345    6.1247 H   0  0  0  0  0  0  0  0  0  0  0  0
    2.1705    8.2031    6.5836 H   0  0  0  0  0  0  0  0  0  0  0  0
    1.5671    9.4171    1.6208 H   0  0  0  0  0  0  0  0  0  0  0  0
   -0.3581   13.5051    3.3995 H   0  0  0  0  0  0  0  0  0  0  0  0
   -0.4229   14.1983    4.9900 H   0  0  0  0  0  0  0  0  0  0  0  0
    1.5982   11.3615    7.7699 H   0  0  0  0  0  0  0  0  0  0  0  0
    9.2726    4.7593    2.1683 H   0  0  0  0  0  0  0  0  0  0  0  0
  1  2  1  0  0  0  0
  1 32  1  0  0  0  0
  1 33  1  0  0  0  0
  2  3  1  6  0  0  0
  2  4  1  0  0  0  0
  2 29  1  0  0  0  0
  4  5  1  0  0  0  0
  4 34  1  0  0  0  0
  4 35  1  0  0  0  0
  5  6  1  0  0  0  0
  5 36  1  0  0  0  0
  5 37  1  0  0  0  0
  6  7  1  0  0  0  0
  7  8  1  0  0  0  0
  7 38  1  0  0  0  0
  7 39  1  0  0  0  0
  8  9  1  0  0  0  0
  8 10  1  0  0  0  0
  8 15  1  1  0  0  0
 10 11  1  0  0  0  0
 11 13  1  1  0  0  0
 11 19  1  0  0  0  0
 11 12  1  0  0  0  0
 13 14  1  0  0  0  0
 13 15  1  6  0  0  0
 13 18  1  0  0  0  0
 15 16  1  6  0  0  0
 15 17  1  0  0  0  0
 17 40  1  0  0  0  0
 18 41  1  0  0  0  0
 19 20  1  0  0  0  0
 19 28  1  0  0  0  0
 20 21  2  0  0  0  0
 20 42  1  0  0  0  0
 21 22  1  0  0  0  0
 22 23  2  0  0  0  0
 22 28  1  0  0  0  0
 23 24  1  0  0  0  0
 23 25  1  0  0  0  0
 24 43  1  0  0  0  0
 24 44  1  0  0  0  0
 25 26  2  0  0  0  0
 26 27  1  0  0  0  0
 26 45  1  0  0  0  0
 27 28  2  0  0  0  0
 29 30  2  0  0  0  0
 29 31  1  0  0  0  0
 31 46  1  0  0  0  0
M  END
$$$$
