@<TRIPOS>MOLECULE
4LVZ_6AP_A_101
 17 18 0 0 0
SMALL
GASTEIGER

@<TRIPOS>ATOM
      1 N          -1.4862    1.0987   -0.0160 N.ar    1  UNL1       -0.3291
      2 H          -1.7808    2.0630   -0.0541 H       1  UNL1        0.1682
      3 C          -2.2884   -0.0091    0.0466 C.ar    1  UNL1        0.0957
      4 N          -1.5864   -1.1225    0.0933 N.ar    1  UNL1       -0.2308
      5 C          -0.2694   -0.7089    0.0566 C.ar    1  UNL1        0.1471
      6 C          -0.1922    0.6678   -0.0264 C.ar    1  UNL1        0.1646
      7 N           0.9112    1.4213   -0.1002 N.ar    1  UNL1       -0.1951
      8 C           2.0229    0.6683   -0.1147 C.ar    1  UNL1        0.2162
      9 N           3.2270    1.3419   -0.1991 N.pl3   1  UNL1       -0.3274
     10 N           2.0959   -0.6729   -0.0169 N.ar    1  UNL1       -0.1978
     11 C           0.9535   -1.3934    0.0824 C.ar    1  UNL1        0.1490
     12 N           1.0512   -2.7760    0.1939 N.pl3   1  UNL1       -0.3413
     13 H          -3.3685    0.0597    0.0558 H       1  UNL1        0.1027
     14 H           3.1252    2.2736    0.1773 H       1  UNL1        0.1452
     15 H           3.9593    0.7634    0.1891 H       1  UNL1        0.1452
     16 H           1.9316   -3.1241   -0.1616 H       1  UNL1        0.1438
     17 H           0.2054   -3.2615   -0.0839 H       1  UNL1        0.1438
@<TRIPOS>BOND
     1     1     2    1
     2     1     3   ar
     3     1     6   ar
     4     3     4   ar
     5     3    13    1
     6     4     5   ar
     7     5     6   ar
     8     5    11   ar
     9     6     7   ar
    10     7     8   ar
    11     8     9    1
    12     8    10   ar
    13     9    14    1
    14     9    15    1
    15    10    11   ar
    16    11    12    1
    17    12    16    1
    18    12    17    1
