4LVZ_6AP_A_101
 OpenBabel03221817313D

 17 18  0  0  0  0  0  0  0  0999 V2000
   -1.4862    1.0987   -0.0160 N   0  0  0  0  0  0  0  0  0  0  0  0
   -1.7808    2.0630   -0.0541 H   0  0  0  0  0  0  0  0  0  0  0  0
   -2.2884   -0.0091    0.0466 C   0  0  0  0  0  0  0  0  0  0  0  0
   -1.5864   -1.1225    0.0933 N   0  0  0  0  0  0  0  0  0  0  0  0
   -0.2694   -0.7089    0.0566 C   0  0  0  0  0  0  0  0  0  0  0  0
   -0.1922    0.6678   -0.0264 C   0  0  0  0  0  0  0  0  0  0  0  0
    0.9112    1.4213   -0.1002 N   0  0  0  0  0  0  0  0  0  0  0  0
    2.0229    0.6683   -0.1147 C   0  0  0  0  0  0  0  0  0  0  0  0
    3.2270    1.3419   -0.1991 N   0  0  0  0  0  0  0  0  0  0  0  0
    2.0959   -0.6729   -0.0169 N   0  0  0  0  0  0  0  0  0  0  0  0
    0.9535   -1.3934    0.0824 C   0  0  0  0  0  0  0  0  0  0  0  0
    1.0512   -2.7760    0.1939 N   0  0  0  0  0  0  0  0  0  0  0  0
   -3.3685    0.0597    0.0558 H   0  0  0  0  0  0  0  0  0  0  0  0
    3.1252    2.2736    0.1773 H   0  0  0  0  0  0  0  0  0  0  0  0
    3.9593    0.7634    0.1891 H   0  0  0  0  0  0  0  0  0  0  0  0
    1.9316   -3.1241   -0.1616 H   0  0  0  0  0  0  0  0  0  0  0  0
    0.2054   -3.2615   -0.0839 H   0  0  0  0  0  0  0  0  0  0  0  0
  1  2  1  0  0  0  0
  1  3  1  0  0  0  0
  1  6  1  0  0  0  0
  3  4  2  0  0  0  0
  3 13  1  0  0  0  0
  4  5  1  0  0  0  0
  5  6  2  0  0  0  0
  5 11  1  0  0  0  0
  6  7  1  0  0  0  0
  7  8  2  0  0  0  0
  8  9  1  0  0  0  0
  8 10  1  0  0  0  0
  9 14  1  0  0  0  0
  9 15  1  0  0  0  0
 10 11  2  0  0  0  0
 11 12  1  0  0  0  0
 12 16  1  0  0  0  0
 12 17  1  0  0  0  0
M  END
$$$$
