@<TRIPOS>MOLECULE
2ESI_KAN_A_51
 69 71 0 0 0
SMALL
GASTEIGER

@<TRIPOS>ATOM
      1 C           8.3186    3.5429   -1.6813 C.3     1  UNL1        0.1883
      2 H           7.8747    4.5210   -1.4731 H       1  UNL1        0.0938
      3 C           8.4104    3.3511   -3.2316 C.3     1  UNL1        0.1341
      4 H           7.4744    3.6597   -3.6931 H       1  UNL1        0.0671
      5 C           9.5866    4.0933   -3.8836 C.3     1  UNL1        0.1140
      6 H           9.6924    3.7193   -4.9046 H       1  UNL1        0.0648
      7 C          10.8977    3.7439   -3.1536 C.3     1  UNL1        0.1109
      8 H          11.7295    4.3222   -3.5762 H       1  UNL1        0.0646
      9 C          10.7696    4.0401   -1.6464 C.3     1  UNL1        0.1023
     10 H          11.5961    3.5254   -1.1448 H       1  UNL1        0.0636
     11 C          11.0025    5.5626   -1.4015 C.3     1  UNL1        0.0222
     12 N          10.9828    5.9685   -0.0025 N.3     1  UNL1       -0.3276
     13 O           9.5904    3.4737   -1.0244 O.3     1  UNL1       -0.3415
     14 O          11.2489    2.3644   -3.3447 O.3     1  UNL1       -0.3865
     15 O           9.4152    5.4998   -4.0034 O.3     1  UNL1       -0.3864
     16 O           8.5952    1.9658   -3.5353 O.3     1  UNL1       -0.3841
     17 O           7.3737    2.4987   -1.2030 O.3     1  UNL1       -0.3413
     18 C           7.2157    2.3684    0.2453 C.3     1  UNL1        0.1051
     19 H           8.2498    2.4485    0.5971 H       1  UNL1        0.0639
     20 C           6.3893    3.5066    0.9085 C.3     1  UNL1        0.1104
     21 H           6.4208    4.3877    0.2625 H       1  UNL1        0.0646
     22 C           4.8767    3.2092    1.2558 C.3     1  UNL1        0.1051
     23 H           4.5056    4.0681    1.8384 H       1  UNL1        0.0639
     24 C           4.7842    1.9472    2.1314 C.3     1  UNL1        0.0355
     25 H           3.7287    1.7105    2.3089 H       1  UNL1        0.0485
     26 C           5.4030    0.7429    1.4100 C.3     1  UNL1       -0.0175
     27 C           6.7768    0.9206    0.7097 C.3     1  UNL1        0.0355
     28 H           6.7769    0.2617   -0.1679 H       1  UNL1        0.0485
     29 N           7.8156    0.3606    1.6159 N.3     1  UNL1       -0.3250
     30 N           5.3857    2.1096    3.4637 N.3     1  UNL1       -0.3250
     31 O           4.0831    3.1440    0.0570 O.3     1  UNL1       -0.3413
     32 C           2.6173    3.0686    0.1173 C.3     1  UNL1        0.1874
     33 H           2.3121    2.1118    0.5534 H       1  UNL1        0.0937
     34 C           2.2301    3.1543   -1.3926 C.3     1  UNL1        0.1234
     35 H           2.6337    2.2797   -1.9149 H       1  UNL1        0.0660
     36 C           0.7313    3.3259   -1.6920 C.3     1  UNL1        0.0647
     37 H           0.6459    3.6631   -2.7353 H       1  UNL1        0.0512
     38 C           0.1535    4.4596   -0.8162 C.3     1  UNL1        0.1012
     39 H          -0.9401    4.4711   -0.9080 H       1  UNL1        0.0636
     40 C           0.5679    4.3117    0.6624 C.3     1  UNL1        0.1120
     41 H           0.3493    5.2570    1.1715 H       1  UNL1        0.0646
     42 C          -0.3112    3.2387    1.3373 C.3     1  UNL1        0.0730
     43 O          -0.1197    3.1847    2.7460 O.3     1  UNL1       -0.3924
     44 O           2.0101    4.1411    0.8369 O.3     1  UNL1       -0.3406
     45 O           0.5727    5.7537   -1.2823 O.3     1  UNL1       -0.3875
     46 N          -0.0697    2.0889   -1.6232 N.3     1  UNL1       -0.3229
     47 O           2.8904    4.3036   -1.9866 O.3     1  UNL1       -0.3851
     48 O           7.0615    3.8753    2.1406 O.3     1  UNL1       -0.3865
     49 H          11.9786    5.8396   -1.8149 H       1  UNL1        0.0448
     50 H          10.2666    6.1768   -1.9173 H       1  UNL1        0.0448
     51 H          11.7488    5.5144    0.4944 H       1  UNL1        0.1183
     52 H          10.1324    5.6257    0.4348 H       1  UNL1        0.1183
     53 H          10.4215    1.8671   -3.5201 H       1  UNL1        0.2100
     54 H           8.7490    5.8283   -3.3826 H       1  UNL1        0.2100
     55 H           8.0386    1.4835   -2.9053 H       1  UNL1        0.2101
     56 H           4.6826    0.3903    0.6649 H       1  UNL1        0.0297
     57 H           5.4535   -0.0936    2.1326 H       1  UNL1        0.0297
     58 H           7.6168   -0.6275    1.7883 H       1  UNL1        0.1185
     59 H           7.7412    0.7967    2.5366 H       1  UNL1        0.1185
     60 H           4.9410    2.9281    3.9175 H       1  UNL1        0.1185
     61 H           6.3502    2.4227    3.3718 H       1  UNL1        0.1185
     62 H          -1.3888    3.4283    1.1655 H       1  UNL1        0.0584
     63 H          -0.1066    2.2373    0.9655 H       1  UNL1        0.0584
     64 H          -0.6048    3.9340    3.1336 H       1  UNL1        0.2095
     65 H           1.1187    5.6328   -2.0819 H       1  UNL1        0.2100
     66 H           0.3356    1.3982   -0.9954 H       1  UNL1        0.1186
     67 H          -0.0675    1.6414   -2.5449 H       1  UNL1        0.1186
     68 H           3.4646    4.6580   -1.2751 H       1  UNL1        0.2101
     69 H           8.0144    3.6835    2.0521 H       1  UNL1        0.2100
@<TRIPOS>BOND
     1     1    13    1
     2     1    17    1
     3     1     2    1
     4     3     1    1
     5     3    16    1
     6     3     4    1
     7     5     3    1
     8     5    15    1
     9     5     6    1
    10     7     5    1
    11     7     8    1
    12     7    14    1
    13     9     7    1
    14     9    13    1
    15     9    11    1
    16     9    10    1
    17    11    12    1
    18    11    49    1
    19    11    50    1
    20    12    51    1
    21    12    52    1
    22    14    53    1
    23    15    54    1
    24    16    55    1
    25    17    18    1
    26    18    19    1
    27    18    20    1
    28    20    22    1
    29    20    48    1
    30    20    21    1
    31    22    24    1
    32    22    31    1
    33    22    23    1
    34    24    25    1
    35    24    26    1
    36    24    30    1
    37    26    27    1
    38    26    56    1
    39    26    57    1
    40    27    28    1
    41    27    18    1
    42    27    29    1
    43    29    58    1
    44    29    59    1
    45    30    60    1
    46    30    61    1
    47    32    44    1
    48    32    33    1
    49    32    31    1
    50    34    32    1
    51    34    47    1
    52    34    35    1
    53    36    34    1
    54    36    46    1
    55    36    37    1
    56    38    36    1
    57    38    39    1
    58    38    45    1
    59    40    38    1
    60    40    44    1
    61    40    42    1
    62    40    41    1
    63    42    43    1
    64    42    62    1
    65    42    63    1
    66    43    64    1
    67    45    65    1
    68    46    66    1
    69    46    67    1
    70    47    68    1
    71    48    69    1
