2ESI_KAN_A_51
 OpenBabel03221817193D

 69 71  0  0  1  0  0  0  0  0999 V2000
    8.3186    3.5429   -1.6813 C   0  0  2  0  0  0  0  0  0  0  0  0
    7.8747    4.5210   -1.4731 H   0  0  0  0  0  0  0  0  0  0  0  0
    8.4104    3.3511   -3.2316 C   0  0  1  0  0  0  0  0  0  0  0  0
    7.4744    3.6597   -3.6931 H   0  0  0  0  0  0  0  0  0  0  0  0
    9.5866    4.0933   -3.8836 C   0  0  2  0  0  0  0  0  0  0  0  0
    9.6924    3.7193   -4.9046 H   0  0  0  0  0  0  0  0  0  0  0  0
   10.8977    3.7439   -3.1536 C   0  0  1  0  0  0  0  0  0  0  0  0
   11.7295    4.3222   -3.5762 H   0  0  0  0  0  0  0  0  0  0  0  0
   10.7696    4.0401   -1.6464 C   0  0  1  0  0  0  0  0  0  0  0  0
   11.5961    3.5254   -1.1448 H   0  0  0  0  0  0  0  0  0  0  0  0
   11.0025    5.5626   -1.4015 C   0  0  0  0  0  0  0  0  0  0  0  0
   10.9828    5.9685   -0.0025 N   0  0  0  0  0  0  0  0  0  0  0  0
    9.5904    3.4737   -1.0244 O   0  0  0  0  0  0  0  0  0  0  0  0
   11.2489    2.3644   -3.3447 O   0  0  0  0  0  0  0  0  0  0  0  0
    9.4152    5.4998   -4.0034 O   0  0  0  0  0  0  0  0  0  0  0  0
    8.5952    1.9658   -3.5353 O   0  0  0  0  0  0  0  0  0  0  0  0
    7.3737    2.4987   -1.2030 O   0  0  0  0  0  0  0  0  0  0  0  0
    7.2157    2.3684    0.2453 C   0  0  1  0  0  0  0  0  0  0  0  0
    8.2498    2.4485    0.5971 H   0  0  0  0  0  0  0  0  0  0  0  0
    6.3893    3.5066    0.9085 C   0  0  1  0  0  0  0  0  0  0  0  0
    6.4208    4.3877    0.2625 H   0  0  0  0  0  0  0  0  0  0  0  0
    4.8767    3.2092    1.2558 C   0  0  2  0  0  0  0  0  0  0  0  0
    4.5056    4.0681    1.8384 H   0  0  0  0  0  0  0  0  0  0  0  0
    4.7842    1.9472    2.1314 C   0  0  1  0  0  0  0  0  0  0  0  0
    3.7287    1.7105    2.3089 H   0  0  0  0  0  0  0  0  0  0  0  0
    5.4030    0.7429    1.4100 C   0  0  0  0  0  0  0  0  0  0  0  0
    6.7768    0.9206    0.7097 C   0  0  2  0  0  0  0  0  0  0  0  0
    6.7769    0.2617   -0.1679 H   0  0  0  0  0  0  0  0  0  0  0  0
    7.8156    0.3606    1.6159 N   0  0  0  0  0  0  0  0  0  0  0  0
    5.3857    2.1096    3.4637 N   0  0  0  0  0  0  0  0  0  0  0  0
    4.0831    3.1440    0.0570 O   0  0  0  0  0  0  0  0  0  0  0  0
    2.6173    3.0686    0.1173 C   0  0  2  0  0  0  0  0  0  0  0  0
    2.3121    2.1118    0.5534 H   0  0  0  0  0  0  0  0  0  0  0  0
    2.2301    3.1543   -1.3926 C   0  0  1  0  0  0  0  0  0  0  0  0
    2.6337    2.2797   -1.9149 H   0  0  0  0  0  0  0  0  0  0  0  0
    0.7313    3.3259   -1.6920 C   0  0  2  0  0  0  0  0  0  0  0  0
    0.6459    3.6631   -2.7353 H   0  0  0  0  0  0  0  0  0  0  0  0
    0.1535    4.4596   -0.8162 C   0  0  1  0  0  0  0  0  0  0  0  0
   -0.9401    4.4711   -0.9080 H   0  0  0  0  0  0  0  0  0  0  0  0
    0.5679    4.3117    0.6624 C   0  0  1  0  0  0  0  0  0  0  0  0
    0.3493    5.2570    1.1715 H   0  0  0  0  0  0  0  0  0  0  0  0
   -0.3112    3.2387    1.3373 C   0  0  0  0  0  0  0  0  0  0  0  0
   -0.1197    3.1847    2.7460 O   0  0  0  0  0  0  0  0  0  0  0  0
    2.0101    4.1411    0.8369 O   0  0  0  0  0  0  0  0  0  0  0  0
    0.5727    5.7537   -1.2823 O   0  0  0  0  0  0  0  0  0  0  0  0
   -0.0697    2.0889   -1.6232 N   0  0  0  0  0  0  0  0  0  0  0  0
    2.8904    4.3036   -1.9866 O   0  0  0  0  0  0  0  0  0  0  0  0
    7.0615    3.8753    2.1406 O   0  0  0  0  0  0  0  0  0  0  0  0
   11.9786    5.8396   -1.8149 H   0  0  0  0  0  0  0  0  0  0  0  0
   10.2666    6.1768   -1.9173 H   0  0  0  0  0  0  0  0  0  0  0  0
   11.7488    5.5144    0.4944 H   0  0  0  0  0  0  0  0  0  0  0  0
   10.1324    5.6257    0.4348 H   0  0  0  0  0  0  0  0  0  0  0  0
   10.4215    1.8671   -3.5201 H   0  0  0  0  0  0  0  0  0  0  0  0
    8.7490    5.8283   -3.3826 H   0  0  0  0  0  0  0  0  0  0  0  0
    8.0386    1.4835   -2.9053 H   0  0  0  0  0  0  0  0  0  0  0  0
    4.6826    0.3903    0.6649 H   0  0  0  0  0  0  0  0  0  0  0  0
    5.4535   -0.0936    2.1326 H   0  0  0  0  0  0  0  0  0  0  0  0
    7.6168   -0.6275    1.7883 H   0  0  0  0  0  0  0  0  0  0  0  0
    7.7412    0.7967    2.5366 H   0  0  0  0  0  0  0  0  0  0  0  0
    4.9410    2.9281    3.9175 H   0  0  0  0  0  0  0  0  0  0  0  0
    6.3502    2.4227    3.3718 H   0  0  0  0  0  0  0  0  0  0  0  0
   -1.3888    3.4283    1.1655 H   0  0  0  0  0  0  0  0  0  0  0  0
   -0.1066    2.2373    0.9655 H   0  0  0  0  0  0  0  0  0  0  0  0
   -0.6048    3.9340    3.1336 H   0  0  0  0  0  0  0  0  0  0  0  0
    1.1187    5.6328   -2.0819 H   0  0  0  0  0  0  0  0  0  0  0  0
    0.3356    1.3982   -0.9954 H   0  0  0  0  0  0  0  0  0  0  0  0
   -0.0675    1.6414   -2.5449 H   0  0  0  0  0  0  0  0  0  0  0  0
    3.4646    4.6580   -1.2751 H   0  0  0  0  0  0  0  0  0  0  0  0
    8.0144    3.6835    2.0521 H   0  0  0  0  0  0  0  0  0  0  0  0
  1 13  1  0  0  0  0
  1 17  1  0  0  0  0
  1  2  1  1  0  0  0
  3  1  1  1  0  0  0
  3 16  1  0  0  0  0
  3  4  1  0  0  0  0
  5  3  1  1  0  0  0
  5 15  1  0  0  0  0
  5  6  1  0  0  0  0
  7  5  1  6  0  0  0
  7  8  1  0  0  0  0
  7 14  1  0  0  0  0
  9  7  1  6  0  0  0
  9 13  1  0  0  0  0
  9 11  1  0  0  0  0
  9 10  1  0  0  0  0
 11 12  1  0  0  0  0
 11 49  1  0  0  0  0
 11 50  1  0  0  0  0
 12 51  1  0  0  0  0
 12 52  1  0  0  0  0
 14 53  1  0  0  0  0
 15 54  1  0  0  0  0
 16 55  1  0  0  0  0
 17 18  1  0  0  0  0
 18 19  1  0  0  0  0
 18 20  1  1  0  0  0
 20 22  1  1  0  0  0
 20 48  1  0  0  0  0
 20 21  1  0  0  0  0
 22 24  1  1  0  0  0
 22 31  1  0  0  0  0
 22 23  1  0  0  0  0
 24 25  1  1  0  0  0
 24 26  1  0  0  0  0
 24 30  1  0  0  0  0
 26 27  1  0  0  0  0
 26 56  1  0  0  0  0
 26 57  1  0  0  0  0
 27 28  1  0  0  0  0
 27 18  1  6  0  0  0
 27 29  1  0  0  0  0
 29 58  1  0  0  0  0
 29 59  1  0  0  0  0
 30 60  1  0  0  0  0
 30 61  1  0  0  0  0
 32 44  1  0  0  0  0
 32 33  1  1  0  0  0
 32 31  1  0  0  0  0
 34 32  1  1  0  0  0
 34 47  1  0  0  0  0
 34 35  1  0  0  0  0
 36 34  1  1  0  0  0
 36 46  1  0  0  0  0
 36 37  1  0  0  0  0
 38 36  1  6  0  0  0
 38 39  1  0  0  0  0
 38 45  1  0  0  0  0
 40 38  1  6  0  0  0
 40 44  1  0  0  0  0
 40 42  1  0  0  0  0
 40 41  1  0  0  0  0
 42 43  1  0  0  0  0
 42 62  1  0  0  0  0
 42 63  1  0  0  0  0
 43 64  1  0  0  0  0
 45 65  1  0  0  0  0
 46 66  1  0  0  0  0
 46 67  1  0  0  0  0
 47 68  1  0  0  0  0
 48 69  1  0  0  0  0
M  END
$$$$
