REMARK  17 active torsions:
REMARK  status: ('A' for Active; 'I' for Inactive)
REMARK    1  A    between atoms: C_1  and  O_12 
REMARK    2  A    between atoms: C_2  and  O_11 
REMARK    3  A    between atoms: C_3  and  O_10 
REMARK    4  A    between atoms: C_4  and  O_9 
REMARK    5  A    between atoms: C_5  and  C_6 
REMARK    6  A    between atoms: C_6  and  N_7 
REMARK    7  A    between atoms: O_12  and  C_13 
REMARK    8  A    between atoms: C_14  and  O_33 
REMARK    9  A    between atoms: C_15  and  O_21 
REMARK   10  A    between atoms: C_16  and  N_20 
REMARK   11  A    between atoms: C_18  and  N_19 
REMARK   12  A    between atoms: C_22  and  O_21 
REMARK   13  A    between atoms: C_23  and  O_32 
REMARK   14  A    between atoms: C_24  and  N_31 
REMARK   15  A    between atoms: C_25  and  O_30 
REMARK   16  A    between atoms: C_26  and  C_27 
REMARK   17  A    between atoms: C_27  and  O_28 
ROOT
ATOM      1  C   UNL d   1       7.216   2.368   0.245  0.00  0.00     0.189 C 
ATOM      2  C   UNL d   1       6.389   3.507   0.908  0.00  0.00     0.180 C 
ATOM      3  C   UNL d   1       4.877   3.209   1.256  0.00  0.00     0.189 C 
ATOM      4  C   UNL d   1       4.784   1.947   2.131  0.00  0.00     0.251 C 
ATOM      5  C   UNL d   1       5.403   0.743   1.410  0.00  0.00     0.076 C 
ATOM      6  C   UNL d   1       6.777   0.921   0.710  0.00  0.00     0.251 C 
ENDROOT
BRANCH   1   7
ATOM      7  O   UNL d   1       7.374   2.499  -1.203  0.00  0.00    -0.348 OA
BRANCH   7   8
ATOM      8  C   UNL d   1       8.319   3.543  -1.681  0.00  0.00     0.292 C 
ATOM      9  O   UNL d   1       9.590   3.474  -1.024  0.00  0.00    -0.349 OA
ATOM     10  C   UNL d   1      10.770   4.040  -1.646  0.00  0.00     0.183 C 
ATOM     11  C   UNL d   1      10.898   3.744  -3.154  0.00  0.00     0.180 C 
ATOM     12  C   UNL d   1       9.587   4.093  -3.884  0.00  0.00     0.183 C 
ATOM     13  C   UNL d   1       8.410   3.351  -3.232  0.00  0.00     0.204 C 
BRANCH  10  14
ATOM     14  C   UNL d   1      11.002   5.563  -1.401  0.00  0.00     0.301 C 
BRANCH  14  15
ATOM     15  N   UNL d   1      10.983   5.968  -0.003  0.00  0.00     0.080 N 
ATOM     16  H   UNL d   1      11.749   5.514   0.494  0.00  0.00     0.312 HD
ATOM     17  H   UNL d   1      10.132   5.626   0.435  0.00  0.00     0.312 HD
ENDBRANCH  14  15
ENDBRANCH  10  14
BRANCH  11  18
ATOM     18  O   UNL d   1      11.249   2.364  -3.345  0.00  0.00    -0.390 OA
ATOM     19  H   UNL d   1      10.421   1.867  -3.520  0.00  0.00     0.210 HD
ENDBRANCH  11  18
BRANCH  12  20
ATOM     20  O   UNL d   1       9.415   5.500  -4.003  0.00  0.00    -0.390 OA
ATOM     21  H   UNL d   1       8.749   5.828  -3.383  0.00  0.00     0.210 HD
ENDBRANCH  12  20
BRANCH  13  22
ATOM     22  O   UNL d   1       8.595   1.966  -3.535  0.00  0.00    -0.388 OA
ATOM     23  H   UNL d   1       8.039   1.484  -2.905  0.00  0.00     0.210 HD
ENDBRANCH  13  22
ENDBRANCH   7   8
ENDBRANCH   1   7
BRANCH   2  24
ATOM     24  O   UNL d   1       7.061   3.875   2.141  0.00  0.00    -0.390 OA
ATOM     25  H   UNL d   1       8.014   3.683   2.052  0.00  0.00     0.210 HD
ENDBRANCH   2  24
BRANCH   6  26
ATOM     26  N   UNL d   1       7.816   0.361   1.616  0.00  0.00     0.085 N 
ATOM     27  H   UNL d   1       7.617  -0.627   1.788  0.00  0.00     0.313 HD
ATOM     28  H   UNL d   1       7.741   0.797   2.537  0.00  0.00     0.313 HD
ENDBRANCH   6  26
BRANCH   3  29
ATOM     29  O   UNL d   1       4.083   3.144   0.057  0.00  0.00    -0.348 OA
BRANCH  29  30
ATOM     30  C   UNL d   1       2.617   3.069   0.117  0.00  0.00     0.291 C 
ATOM     31  O   UNL d   1       2.010   4.141   0.837  0.00  0.00    -0.349 OA
ATOM     32  C   UNL d   1       0.568   4.312   0.662  0.00  0.00     0.179 C 
ATOM     33  C   UNL d   1       0.153   4.460  -0.816  0.00  0.00     0.184 C 
ATOM     34  C   UNL d   1       0.731   3.326  -1.692  0.00  0.00     0.282 C 
ATOM     35  C   UNL d   1       2.230   3.154  -1.393  0.00  0.00     0.208 C 
BRANCH  32  36
ATOM     36  C   UNL d   1      -0.311   3.239   1.337  0.00  0.00     0.198 C 
BRANCH  36  37
ATOM     37  O   UNL d   1      -0.120   3.185   2.746  0.00  0.00    -0.398 OA
ATOM     38  H   UNL d   1      -0.605   3.934   3.134  0.00  0.00     0.209 HD
ENDBRANCH  36  37
ENDBRANCH  32  36
BRANCH  33  39
ATOM     39  O   UNL d   1       0.573   5.754  -1.282  0.00  0.00    -0.391 OA
ATOM     40  H   UNL d   1       1.119   5.633  -2.082  0.00  0.00     0.210 HD
ENDBRANCH  33  39
BRANCH  34  41
ATOM     41  N   UNL d   1      -0.070   2.089  -1.623  0.00  0.00     0.088 N 
ATOM     42  H   UNL d   1       0.336   1.398  -0.995  0.00  0.00     0.313 HD
ATOM     43  H   UNL d   1      -0.068   1.641  -2.545  0.00  0.00     0.313 HD
ENDBRANCH  34  41
BRANCH  35  44
ATOM     44  O   UNL d   1       2.890   4.304  -1.987  0.00  0.00    -0.388 OA
ATOM     45  H   UNL d   1       3.465   4.658  -1.275  0.00  0.00     0.210 HD
ENDBRANCH  35  44
ENDBRANCH  29  30
ENDBRANCH   3  29
BRANCH   4  46
ATOM     46  N   UNL d   1       5.386   2.110   3.464  0.00  0.00     0.085 N 
ATOM     47  H   UNL d   1       4.941   2.928   3.917  0.00  0.00     0.313 HD
ATOM     48  H   UNL d   1       6.350   2.423   3.372  0.00  0.00     0.313 HD
ENDBRANCH   4  46
TORSDOF 17
