@<TRIPOS>MOLECULE
4LVW_7DG_A_101
 17 18 0 0 0
SMALL
GASTEIGER

@<TRIPOS>ATOM
      1 N          -1.2655    1.9889   -0.1599 N.2     1  UNL1       -0.2397
      2 C          -2.3983    1.3433   -0.1262 C.2     1  UNL1        0.0121
      3 C          -2.3398   -0.1587    0.0059 C.3     1  UNL1        0.0167
      4 C          -0.8679   -0.1963   -0.0486 C.ar    1  UNL1        0.0662
      5 C          -0.0514   -1.3883    0.0489 C.ar    1  UNL1        0.2582
      6 O          -0.5461   -2.5044    0.1111 O.2     1  UNL1       -0.2674
      7 N           1.2952   -1.1272   -0.0183 N.ar    1  UNL1       -0.2950
      8 H           1.9195   -1.9269    0.0220 H       1  UNL1        0.1716
      9 C           1.8400    0.1723   -0.0205 C.ar    1  UNL1        0.1949
     10 N           3.2388    0.2364   -0.0807 N.pl3   1  UNL1       -0.3289
     11 N           1.0605    1.2308   -0.1813 N.ar    1  UNL1       -0.1966
     12 C          -0.3039    1.0129   -0.0364 C.ar    1  UNL1        0.1644
     13 H          -3.3836    1.8369   -0.1901 H       1  UNL1        0.0786
     14 H          -2.7806   -0.5063    0.9422 H       1  UNL1        0.0373
     15 H          -2.8123   -0.6608   -0.8437 H       1  UNL1        0.0373
     16 H           3.7682   -0.2881    0.6173 H       1  UNL1        0.1451
     17 H           3.6132    1.1772   -0.1381 H       1  UNL1        0.1451
@<TRIPOS>BOND
     1     2     1    2
     2     3     2    1
     3     4     3    1
     4     5     4   ar
     5     6     5    2
     6     7     5   ar
     7     7     8    1
     8     9     7   ar
     9    10     9    1
    10    11     9   ar
    11    12    11   ar
    12    12     1    1
    13    12     4   ar
    14     2    13    1
    15     3    14    1
    16     3    15    1
    17    10    16    1
    18    10    17    1
