REMARK  1 active torsions:
REMARK  status: ('A' for Active; 'I' for Inactive)
REMARK    1  A    between atoms: N_10  and  C_9 
ROOT
ATOM      1  N   UNL d   1      -1.266   1.989  -0.160  0.00  0.00    -0.245 NA
ATOM      2  C   UNL d   1      -2.398   1.343  -0.126  0.00  0.00     0.097 C 
ATOM      3  C   UNL d   1      -2.340  -0.159   0.006  0.00  0.00     0.095 C 
ATOM      4  C   UNL d   1      -0.868  -0.196  -0.049  0.00  0.00     0.062 C 
ATOM      5  C   UNL d   1      -0.051  -1.388   0.049  0.00  0.00     0.258 C 
ATOM      6  O   UNL d   1      -0.546  -2.504   0.111  0.00  0.00    -0.267 OA
ATOM      7  N   UNL d   1       1.295  -1.127  -0.018  0.00  0.00    -0.298 N 
ATOM      8  H   UNL d   1       1.919  -1.927   0.022  0.00  0.00     0.171 HD
ATOM      9  C   UNL d   1       1.840   0.172  -0.021  0.00  0.00     0.181 C 
ATOM     10  N   UNL d   1       1.060   1.231  -0.181  0.00  0.00    -0.200 NA
ATOM     11  C   UNL d   1      -0.304   1.013  -0.036  0.00  0.00     0.164 C 
ENDROOT
BRANCH   9  12
ATOM     12  N   UNL d   1       3.239   0.236  -0.081  0.00  0.00    -0.272 NA
ATOM     13  H   UNL d   1       3.768  -0.288   0.617  0.00  0.00     0.127 HD
ATOM     14  H   UNL d   1       3.613   1.177  -0.138  0.00  0.00     0.127 HD
ENDBRANCH   9  12
TORSDOF 1
