@<TRIPOS>MOLECULE
2A04_NMY_A_17
 88 91 0 0 0
SMALL
GASTEIGER

@<TRIPOS>ATOM
      1 C           7.2818   -5.5070   -1.9620 C.3     1  UNL1        0.1776
      2 H           8.0009   -5.7913   -2.7422 H       1  UNL1        0.0927
      3 O           6.7260   -4.2330   -2.2979 O.3     1  UNL1       -0.3422
      4 C           7.6380   -3.3245   -2.9425 C.3     1  UNL1        0.1055
      5 H           8.5696   -3.8479   -3.2105 H       1  UNL1        0.0639
      6 C           6.9501   -2.8585   -4.2362 C.3     1  UNL1        0.1166
      7 H           5.9315   -2.5339   -3.9921 H       1  UNL1        0.0650
      8 C           7.7358   -1.7088   -4.8751 C.3     1  UNL1        0.0990
      9 H           8.7257   -2.0779   -5.1663 H       1  UNL1        0.0636
     10 C           7.8430   -0.4824   -3.9479 C.3     1  UNL1        0.0351
     11 H           7.1869    0.3247   -4.3062 H       1  UNL1        0.0485
     12 N           9.2151    0.0305   -3.9894 N.3     1  UNL1       -0.3250
     13 C           7.4456   -0.7966   -2.4927 C.3     1  UNL1       -0.0175
     14 C           7.9197   -2.1646   -1.9714 C.3     1  UNL1        0.0355
     15 H           7.3998   -2.3505   -1.0228 H       1  UNL1        0.0485
     16 N           9.3495   -2.1013   -1.6545 N.3     1  UNL1       -0.3250
     17 O           7.1147   -1.3034   -6.0993 O.3     1  UNL1       -0.3876
     18 O           6.9206   -3.9981   -5.1008 O.3     1  UNL1       -0.3402
     19 C           5.7965   -4.0813   -5.9744 C.3     1  UNL1        0.1884
     20 H           6.0842   -3.6476   -6.9391 H       1  UNL1        0.0938
     21 C           5.4080   -5.5509   -6.1218 C.3     1  UNL1        0.1345
     22 H           5.5152   -6.0741   -5.1671 H       1  UNL1        0.0671
     23 C           3.9457   -5.4429   -6.5235 C.3     1  UNL1        0.1205
     24 H           3.4040   -6.3848   -6.4070 H       1  UNL1        0.0651
     25 C           3.5002   -4.3298   -5.5679 C.3     1  UNL1        0.1135
     26 H           2.6199   -3.7850   -5.9195 H       1  UNL1        0.0647
     27 O           4.6008   -3.4052   -5.5366 O.3     1  UNL1       -0.3405
     28 C           3.2253   -4.7977   -4.1373 C.3     1  UNL1        0.0730
     29 O           2.4730   -3.7981   -3.4565 O.3     1  UNL1       -0.3924
     30 O           3.9429   -5.0986   -7.9206 O.3     1  UNL1       -0.3410
     31 C           2.8042   -4.3789   -8.3934 C.3     1  UNL1        0.1776
     32 H           1.9119   -4.6809   -7.8251 H       1  UNL1        0.0927
     33 C           2.5688   -4.6853   -9.8910 C.3     1  UNL1        0.0853
     34 H           1.5017   -4.5366  -10.1029 H       1  UNL1        0.0535
     35 C           3.3646   -3.7086  -10.7701 C.3     1  UNL1        0.1033
     36 H           4.4377   -3.8898  -10.6206 H       1  UNL1        0.0637
     37 C           3.0289   -2.2399  -10.4410 C.3     1  UNL1        0.1100
     38 H           2.3761   -1.7985  -11.2033 H       1  UNL1        0.0646
     39 C           2.3507   -2.1169   -9.0643 C.3     1  UNL1        0.1022
     40 H           1.3052   -2.4421   -9.1235 H       1  UNL1        0.0636
     41 O           3.0521   -2.9824   -8.1715 O.3     1  UNL1       -0.3425
     42 C           2.4137   -0.7189   -8.4413 C.3     1  UNL1        0.0222
     43 N           1.4425    0.1943   -9.0304 N.3     1  UNL1       -0.3276
     44 O           4.2516   -1.5056  -10.4683 O.3     1  UNL1       -0.3866
     45 O           3.1066   -3.9400  -12.1540 O.3     1  UNL1       -0.3874
     46 N           2.8925   -6.0762  -10.2101 N.3     1  UNL1       -0.3211
     47 O           6.2047   -6.2219   -7.0763 O.3     1  UNL1       -0.3841
     48 C           6.1420   -6.5472   -1.9313 C.3     1  UNL1        0.0853
     49 H           5.6312   -6.5460   -2.9023 H       1  UNL1        0.0535
     50 N           5.1555   -6.1791   -0.9102 N.3     1  UNL1       -0.3211
     51 C           6.6841   -7.9451   -1.6027 C.3     1  UNL1        0.1033
     52 H           6.0205   -8.4882   -0.9115 H       1  UNL1        0.0637
     53 O           6.7127   -8.6972   -2.8195 O.3     1  UNL1       -0.3874
     54 C           8.1182   -7.8866   -1.0603 C.3     1  UNL1        0.1100
     55 H           8.8406   -7.7959   -1.8833 H       1  UNL1        0.0646
     56 O           8.3842   -9.1218   -0.3914 O.3     1  UNL1       -0.3866
     57 C           8.2837   -6.7029   -0.0966 C.3     1  UNL1        0.1022
     58 H           7.5651   -6.8258    0.7219 H       1  UNL1        0.0636
     59 O           7.9750   -5.4374   -0.7153 O.3     1  UNL1       -0.3425
     60 C           9.6870   -6.6361    0.5332 C.3     1  UNL1        0.0222
     61 N          10.5717   -5.6757   -0.1247 N.3     1  UNL1       -0.3276
     62 H           9.2646    0.9082   -3.4684 H       1  UNL1        0.1185
     63 H           9.4589    0.2690   -4.9499 H       1  UNL1        0.1185
     64 H           6.3490   -0.7809   -2.4398 H       1  UNL1        0.0297
     65 H           7.7825    0.0045   -1.8242 H       1  UNL1        0.0297
     66 H           9.6302   -2.9673   -1.1893 H       1  UNL1        0.1185
     67 H           9.5157   -1.3561   -0.9857 H       1  UNL1        0.1185
     68 H           6.1809   -1.1092   -5.9101 H       1  UNL1        0.2100
     69 H           4.1375   -4.9760   -3.5628 H       1  UNL1        0.0584
     70 H           2.6226   -5.7131   -4.1407 H       1  UNL1        0.0584
     71 H           3.1001   -3.0981   -3.2110 H       1  UNL1        0.2095
     72 H           3.4178   -0.2900   -8.5280 H       1  UNL1        0.0448
     73 H           2.2014   -0.7907   -7.3678 H       1  UNL1        0.0448
     74 H           1.4508    0.1148  -10.0460 H       1  UNL1        0.1183
     75 H           0.5052   -0.0579   -8.7213 H       1  UNL1        0.1183
     76 H           4.2713   -1.0024  -11.3004 H       1  UNL1        0.2100
     77 H           2.1434   -3.9644  -12.2789 H       1  UNL1        0.2100
     78 H           2.6819   -6.2514  -11.1942 H       1  UNL1        0.1187
     79 H           2.2767   -6.6904   -9.6819 H       1  UNL1        0.1187
     80 H           7.0974   -6.3059   -6.7025 H       1  UNL1        0.2101
     81 H           4.3032   -6.7142   -1.0844 H       1  UNL1        0.1187
     82 H           4.9063   -5.1949   -1.0220 H       1  UNL1        0.1187
     83 H           5.8428   -9.1239   -2.9117 H       1  UNL1        0.2100
     84 H           8.5649   -9.7896   -1.0748 H       1  UNL1        0.2100
     85 H          10.1808   -7.6139    0.5227 H       1  UNL1        0.0448
     86 H           9.5918   -6.3456    1.5868 H       1  UNL1        0.0448
     87 H          10.2927   -4.7325    0.1463 H       1  UNL1        0.1183
     88 H          10.4477   -5.7204   -1.1357 H       1  UNL1        0.1183
@<TRIPOS>BOND
     1     1     2    1
     2     3     1    1
     3     4     3    1
     4     4     5    1
     5     6     4    1
     6     6     7    1
     7     8     6    1
     8     8     9    1
     9    10     8    1
    10    10    11    1
    11    12    10    1
    12    13    10    1
    13    14    13    1
    14    14    15    1
    15    14     4    1
    16    16    14    1
    17    17     8    1
    18    18     6    1
    19    19    18    1
    20    19    20    1
    21    21    19    1
    22    21    22    1
    23    23    21    1
    24    23    24    1
    25    25    23    1
    26    25    26    1
    27    27    25    1
    28    27    19    1
    29    28    25    1
    30    29    28    1
    31    30    23    1
    32    31    30    1
    33    31    32    1
    34    33    31    1
    35    33    34    1
    36    35    33    1
    37    35    36    1
    38    37    35    1
    39    37    38    1
    40    39    37    1
    41    39    40    1
    42    41    39    1
    43    41    31    1
    44    42    39    1
    45    43    42    1
    46    44    37    1
    47    45    35    1
    48    46    33    1
    49    47    21    1
    50    48     1    1
    51    48    49    1
    52    50    48    1
    53    51    48    1
    54    51    52    1
    55    53    51    1
    56    54    51    1
    57    54    55    1
    58    56    54    1
    59    57    54    1
    60    57    58    1
    61    59    57    1
    62    59     1    1
    63    60    57    1
    64    61    60    1
    65    12    62    1
    66    12    63    1
    67    13    64    1
    68    13    65    1
    69    16    66    1
    70    16    67    1
    71    17    68    1
    72    28    69    1
    73    28    70    1
    74    29    71    1
    75    42    72    1
    76    42    73    1
    77    43    74    1
    78    43    75    1
    79    44    76    1
    80    45    77    1
    81    46    78    1
    82    46    79    1
    83    47    80    1
    84    50    81    1
    85    50    82    1
    86    53    83    1
    87    56    84    1
    88    60    85    1
    89    60    86    1
    90    61    87    1
    91    61    88    1
