REMARK  22 active torsions:
REMARK  status: ('A' for Active; 'I' for Inactive)
REMARK    1  A    between atoms: O_2  and  C_1 
REMARK    2  A    between atoms: C_3  and  O_2 
REMARK    3  A    between atoms: O_12  and  C_4 
REMARK    4  A    between atoms: O_11  and  C_5 
REMARK    5  A    between atoms: N_7  and  C_6 
REMARK    6  A    between atoms: N_10  and  C_9 
REMARK    7  A    between atoms: C_13  and  O_12 
REMARK    8  A    between atoms: O_32  and  C_14 
REMARK    9  A    between atoms: O_20  and  C_15 
REMARK   10  A    between atoms: C_18  and  C_16 
REMARK   11  A    between atoms: O_19  and  C_18 
REMARK   12  A    between atoms: C_21  and  O_20 
REMARK   13  A    between atoms: N_31  and  C_22 
REMARK   14  A    between atoms: O_30  and  C_23 
REMARK   15  A    between atoms: O_29  and  C_24 
REMARK   16  A    between atoms: C_27  and  C_25 
REMARK   17  A    between atoms: N_28  and  C_27 
REMARK   18  A    between atoms: N_34  and  C_33 
REMARK   19  A    between atoms: O_36  and  C_35 
REMARK   20  A    between atoms: O_38  and  C_37 
REMARK   21  A    between atoms: C_41  and  C_39 
REMARK   22  A    between atoms: N_42  and  C_41 
ROOT
ATOM      1  C   UNL d   1       7.638  -3.325  -2.942  0.00  0.00     0.189 C 
ATOM      2  C   UNL d   1       6.950  -2.858  -4.236  0.00  0.00     0.186 C 
ATOM      3  C   UNL d   1       7.736  -1.709  -4.875  0.00  0.00     0.182 C 
ATOM      4  C   UNL d   1       7.843  -0.482  -3.948  0.00  0.00     0.251 C 
ATOM      5  C   UNL d   1       7.446  -0.797  -2.493  0.00  0.00     0.076 C 
ATOM      6  C   UNL d   1       7.920  -2.165  -1.971  0.00  0.00     0.251 C 
ENDROOT
BRANCH   2   7
ATOM      7  O   UNL d   1       6.921  -3.998  -5.101  0.00  0.00    -0.348 OA
BRANCH   7   8
ATOM      8  C   UNL d   1       5.796  -4.081  -5.974  0.00  0.00     0.292 C 
ATOM      9  C   UNL d   1       5.408  -5.551  -6.122  0.00  0.00     0.205 C 
ATOM     10  C   UNL d   1       3.946  -5.443  -6.524  0.00  0.00     0.189 C 
ATOM     11  C   UNL d   1       3.500  -4.330  -5.568  0.00  0.00     0.180 C 
ATOM     12  O   UNL d   1       4.601  -3.405  -5.537  0.00  0.00    -0.348 OA
BRANCH   9  13
ATOM     13  O   UNL d   1       6.205  -6.222  -7.076  0.00  0.00    -0.388 OA
ATOM     14  H   UNL d   1       7.097  -6.306  -6.702  0.00  0.00     0.210 HD
ENDBRANCH   9  13
BRANCH  10  15
ATOM     15  O   UNL d   1       3.943  -5.099  -7.921  0.00  0.00    -0.348 OA
BRANCH  15  16
ATOM     16  C   UNL d   1       2.804  -4.379  -8.393  0.00  0.00     0.296 C 
ATOM     17  C   UNL d   1       2.569  -4.685  -9.891  0.00  0.00     0.303 C 
ATOM     18  C   UNL d   1       3.365  -3.709 -10.770  0.00  0.00     0.187 C 
ATOM     19  C   UNL d   1       3.029  -2.240 -10.441  0.00  0.00     0.179 C 
ATOM     20  C   UNL d   1       2.351  -2.117  -9.064  0.00  0.00     0.183 C 
ATOM     21  O   UNL d   1       3.052  -2.982  -8.171  0.00  0.00    -0.349 OA
BRANCH  17  22
ATOM     22  N   UNL d   1       2.893  -6.076 -10.210  0.00  0.00     0.090 N 
ATOM     23  H   UNL d   1       2.682  -6.251 -11.194  0.00  0.00     0.313 HD
ATOM     24  H   UNL d   1       2.277  -6.690  -9.682  0.00  0.00     0.313 HD
ENDBRANCH  17  22
BRANCH  18  25
ATOM     25  O   UNL d   1       3.107  -3.940 -12.154  0.00  0.00    -0.391 OA
ATOM     26  H   UNL d   1       2.143  -3.964 -12.279  0.00  0.00     0.210 HD
ENDBRANCH  18  25
BRANCH  19  27
ATOM     27  O   UNL d   1       4.252  -1.506 -10.468  0.00  0.00    -0.390 OA
ATOM     28  H   UNL d   1       4.271  -1.002 -11.300  0.00  0.00     0.210 HD
ENDBRANCH  19  27
BRANCH  20  29
ATOM     29  C   UNL d   1       2.414  -0.719  -8.441  0.00  0.00     0.301 C 
BRANCH  29  30
ATOM     30  N   UNL d   1       1.442   0.194  -9.030  0.00  0.00     0.080 N 
ATOM     31  H   UNL d   1       1.451   0.115 -10.046  0.00  0.00     0.312 HD
ATOM     32  H   UNL d   1       0.505  -0.058  -8.721  0.00  0.00     0.312 HD
ENDBRANCH  29  30
ENDBRANCH  20  29
ENDBRANCH  15  16
ENDBRANCH  10  15
BRANCH  11  33
ATOM     33  C   UNL d   1       3.225  -4.798  -4.137  0.00  0.00     0.198 C 
BRANCH  33  34
ATOM     34  O   UNL d   1       2.473  -3.798  -3.457  0.00  0.00    -0.398 OA
ATOM     35  H   UNL d   1       3.100  -3.098  -3.211  0.00  0.00     0.209 HD
ENDBRANCH  33  34
ENDBRANCH  11  33
ENDBRANCH   7   8
ENDBRANCH   2   7
BRANCH   1  36
ATOM     36  O   UNL d   1       6.726  -4.233  -2.298  0.00  0.00    -0.349 OA
BRANCH  36  37
ATOM     37  C   UNL d   1       7.282  -5.507  -1.962  0.00  0.00     0.296 C 
ATOM     38  C   UNL d   1       6.142  -6.547  -1.931  0.00  0.00     0.303 C 
ATOM     39  C   UNL d   1       6.684  -7.945  -1.603  0.00  0.00     0.187 C 
ATOM     40  C   UNL d   1       8.118  -7.887  -1.060  0.00  0.00     0.179 C 
ATOM     41  C   UNL d   1       8.284  -6.703  -0.097  0.00  0.00     0.183 C 
ATOM     42  O   UNL d   1       7.975  -5.437  -0.715  0.00  0.00    -0.349 OA
BRANCH  38  43
ATOM     43  N   UNL d   1       5.155  -6.179  -0.910  0.00  0.00     0.090 N 
ATOM     44  H   UNL d   1       4.303  -6.714  -1.084  0.00  0.00     0.313 HD
ATOM     45  H   UNL d   1       4.906  -5.195  -1.022  0.00  0.00     0.313 HD
ENDBRANCH  38  43
BRANCH  39  46
ATOM     46  O   UNL d   1       6.713  -8.697  -2.820  0.00  0.00    -0.391 OA
ATOM     47  H   UNL d   1       5.843  -9.124  -2.912  0.00  0.00     0.210 HD
ENDBRANCH  39  46
BRANCH  40  48
ATOM     48  O   UNL d   1       8.384  -9.122  -0.391  0.00  0.00    -0.390 OA
ATOM     49  H   UNL d   1       8.565  -9.790  -1.075  0.00  0.00     0.210 HD
ENDBRANCH  40  48
BRANCH  41  50
ATOM     50  C   UNL d   1       9.687  -6.636   0.533  0.00  0.00     0.301 C 
BRANCH  50  51
ATOM     51  N   UNL d   1      10.572  -5.676  -0.125  0.00  0.00     0.080 N 
ATOM     52  H   UNL d   1      10.293  -4.732   0.146  0.00  0.00     0.312 HD
ATOM     53  H   UNL d   1      10.448  -5.720  -1.136  0.00  0.00     0.312 HD
ENDBRANCH  50  51
ENDBRANCH  41  50
ENDBRANCH  36  37
ENDBRANCH   1  36
BRANCH   3  54
ATOM     54  O   UNL d   1       7.115  -1.303  -6.099  0.00  0.00    -0.391 OA
ATOM     55  H   UNL d   1       6.181  -1.109  -5.910  0.00  0.00     0.210 HD
ENDBRANCH   3  54
BRANCH   6  56
ATOM     56  N   UNL d   1       9.350  -2.101  -1.655  0.00  0.00     0.085 N 
ATOM     57  H   UNL d   1       9.630  -2.967  -1.189  0.00  0.00     0.313 HD
ATOM     58  H   UNL d   1       9.516  -1.356  -0.986  0.00  0.00     0.313 HD
ENDBRANCH   6  56
BRANCH   4  59
ATOM     59  N   UNL d   1       9.215   0.030  -3.989  0.00  0.00     0.085 N 
ATOM     60  H   UNL d   1       9.265   0.908  -3.468  0.00  0.00     0.313 HD
ATOM     61  H   UNL d   1       9.459   0.269  -4.950  0.00  0.00     0.313 HD
ENDBRANCH   4  59
TORSDOF 22
