2A04_NMY_A_17
  1228              3D

 88 91  0  0  0  0  0  0  0  0999 V2000
    7.2818   -5.5070   -1.9620 C   0  0  0  0  0  0  0  0  0  0  0  0
    8.0009   -5.7913   -2.7422 H   0  0  0  0  0  0  0  0  0  0  0  0
    6.7260   -4.2330   -2.2979 O   0  0  0  0  0  0  0  0  0  0  0  0
    7.6380   -3.3245   -2.9425 C   0  0  0  0  0  0  0  0  0  0  0  0
    8.5696   -3.8479   -3.2105 H   0  0  0  0  0  0  0  0  0  0  0  0
    6.9501   -2.8585   -4.2362 C   0  0  0  0  0  0  0  0  0  0  0  0
    5.9315   -2.5339   -3.9921 H   0  0  0  0  0  0  0  0  0  0  0  0
    7.7358   -1.7088   -4.8751 C   0  0  0  0  0  0  0  0  0  0  0  0
    8.7257   -2.0779   -5.1663 H   0  0  0  0  0  0  0  0  0  0  0  0
    7.8430   -0.4824   -3.9479 C   0  0  0  0  0  0  0  0  0  0  0  0
    7.1869    0.3247   -4.3062 H   0  0  0  0  0  0  0  0  0  0  0  0
    9.2151    0.0305   -3.9894 N   0  0  0  0  0  0  0  0  0  0  0  0
    7.4456   -0.7966   -2.4927 C   0  0  0  0  0  0  0  0  0  0  0  0
    7.9197   -2.1646   -1.9714 C   0  0  0  0  0  0  0  0  0  0  0  0
    7.3998   -2.3505   -1.0228 H   0  0  0  0  0  0  0  0  0  0  0  0
    9.3495   -2.1013   -1.6545 N   0  0  0  0  0  0  0  0  0  0  0  0
    7.1147   -1.3034   -6.0993 O   0  0  0  0  0  0  0  0  0  0  0  0
    6.9206   -3.9981   -5.1008 O   0  0  0  0  0  0  0  0  0  0  0  0
    5.7965   -4.0813   -5.9744 C   0  0  0  0  0  0  0  0  0  0  0  0
    6.0842   -3.6476   -6.9391 H   0  0  0  0  0  0  0  0  0  0  0  0
    5.4080   -5.5509   -6.1218 C   0  0  0  0  0  0  0  0  0  0  0  0
    5.5152   -6.0741   -5.1671 H   0  0  0  0  0  0  0  0  0  0  0  0
    3.9457   -5.4429   -6.5235 C   0  0  0  0  0  0  0  0  0  0  0  0
    3.4040   -6.3848   -6.4070 H   0  0  0  0  0  0  0  0  0  0  0  0
    3.5002   -4.3298   -5.5679 C   0  0  0  0  0  0  0  0  0  0  0  0
    2.6199   -3.7850   -5.9195 H   0  0  0  0  0  0  0  0  0  0  0  0
    4.6008   -3.4052   -5.5366 O   0  0  0  0  0  0  0  0  0  0  0  0
    3.2253   -4.7977   -4.1373 C   0  0  0  0  0  0  0  0  0  0  0  0
    2.4730   -3.7981   -3.4565 O   0  0  0  0  0  0  0  0  0  0  0  0
    3.9429   -5.0986   -7.9206 O   0  0  0  0  0  0  0  0  0  0  0  0
    2.8042   -4.3789   -8.3934 C   0  0  0  0  0  0  0  0  0  0  0  0
    1.9119   -4.6809   -7.8251 H   0  0  0  0  0  0  0  0  0  0  0  0
    2.5688   -4.6853   -9.8910 C   0  0  0  0  0  0  0  0  0  0  0  0
    1.5017   -4.5366  -10.1029 H   0  0  0  0  0  0  0  0  0  0  0  0
    3.3646   -3.7086  -10.7701 C   0  0  0  0  0  0  0  0  0  0  0  0
    4.4377   -3.8898  -10.6206 H   0  0  0  0  0  0  0  0  0  0  0  0
    3.0289   -2.2399  -10.4410 C   0  0  0  0  0  0  0  0  0  0  0  0
    2.3761   -1.7985  -11.2033 H   0  0  0  0  0  0  0  0  0  0  0  0
    2.3507   -2.1169   -9.0643 C   0  0  0  0  0  0  0  0  0  0  0  0
    1.3052   -2.4421   -9.1235 H   0  0  0  0  0  0  0  0  0  0  0  0
    3.0521   -2.9824   -8.1715 O   0  0  0  0  0  0  0  0  0  0  0  0
    2.4137   -0.7189   -8.4413 C   0  0  0  0  0  0  0  0  0  0  0  0
    1.4425    0.1943   -9.0304 N   0  0  0  0  0  0  0  0  0  0  0  0
    4.2516   -1.5056  -10.4683 O   0  0  0  0  0  0  0  0  0  0  0  0
    3.1066   -3.9400  -12.1540 O   0  0  0  0  0  0  0  0  0  0  0  0
    2.8925   -6.0762  -10.2101 N   0  0  0  0  0  0  0  0  0  0  0  0
    6.2047   -6.2219   -7.0763 O   0  0  0  0  0  0  0  0  0  0  0  0
    6.1420   -6.5472   -1.9313 C   0  0  0  0  0  0  0  0  0  0  0  0
    5.6312   -6.5460   -2.9023 H   0  0  0  0  0  0  0  0  0  0  0  0
    5.1555   -6.1791   -0.9102 N   0  0  0  0  0  0  0  0  0  0  0  0
    6.6841   -7.9451   -1.6027 C   0  0  0  0  0  0  0  0  0  0  0  0
    6.0205   -8.4882   -0.9115 H   0  0  0  0  0  0  0  0  0  0  0  0
    6.7127   -8.6972   -2.8195 O   0  0  0  0  0  0  0  0  0  0  0  0
    8.1182   -7.8866   -1.0603 C   0  0  0  0  0  0  0  0  0  0  0  0
    8.8406   -7.7959   -1.8833 H   0  0  0  0  0  0  0  0  0  0  0  0
    8.3842   -9.1218   -0.3914 O   0  0  0  0  0  0  0  0  0  0  0  0
    8.2837   -6.7029   -0.0966 C   0  0  0  0  0  0  0  0  0  0  0  0
    7.5651   -6.8258    0.7219 H   0  0  0  0  0  0  0  0  0  0  0  0
    7.9750   -5.4374   -0.7153 O   0  0  0  0  0  0  0  0  0  0  0  0
    9.6870   -6.6361    0.5332 C   0  0  0  0  0  0  0  0  0  0  0  0
   10.5717   -5.6757   -0.1247 N   0  0  0  0  0  0  0  0  0  0  0  0
    9.2646    0.9082   -3.4684 H   0  0  0  0  0  0  0  0  0  0  0  0
    9.4589    0.2690   -4.9499 H   0  0  0  0  0  0  0  0  0  0  0  0
    6.3490   -0.7809   -2.4398 H   0  0  0  0  0  0  0  0  0  0  0  0
    7.7825    0.0045   -1.8242 H   0  0  0  0  0  0  0  0  0  0  0  0
    9.6302   -2.9673   -1.1893 H   0  0  0  0  0  0  0  0  0  0  0  0
    9.5157   -1.3561   -0.9857 H   0  0  0  0  0  0  0  0  0  0  0  0
    6.1809   -1.1092   -5.9101 H   0  0  0  0  0  0  0  0  0  0  0  0
    4.1375   -4.9760   -3.5628 H   0  0  0  0  0  0  0  0  0  0  0  0
    2.6226   -5.7131   -4.1407 H   0  0  0  0  0  0  0  0  0  0  0  0
    3.1001   -3.0981   -3.2110 H   0  0  0  0  0  0  0  0  0  0  0  0
    3.4178   -0.2900   -8.5280 H   0  0  0  0  0  0  0  0  0  0  0  0
    2.2014   -0.7907   -7.3678 H   0  0  0  0  0  0  0  0  0  0  0  0
    1.4508    0.1148  -10.0460 H   0  0  0  0  0  0  0  0  0  0  0  0
    0.5052   -0.0579   -8.7213 H   0  0  0  0  0  0  0  0  0  0  0  0
    4.2713   -1.0024  -11.3004 H   0  0  0  0  0  0  0  0  0  0  0  0
    2.1434   -3.9644  -12.2789 H   0  0  0  0  0  0  0  0  0  0  0  0
    2.6819   -6.2514  -11.1942 H   0  0  0  0  0  0  0  0  0  0  0  0
    2.2767   -6.6904   -9.6819 H   0  0  0  0  0  0  0  0  0  0  0  0
    7.0974   -6.3059   -6.7025 H   0  0  0  0  0  0  0  0  0  0  0  0
    4.3032   -6.7142   -1.0844 H   0  0  0  0  0  0  0  0  0  0  0  0
    4.9063   -5.1949   -1.0220 H   0  0  0  0  0  0  0  0  0  0  0  0
    5.8428   -9.1239   -2.9117 H   0  0  0  0  0  0  0  0  0  0  0  0
    8.5649   -9.7896   -1.0748 H   0  0  0  0  0  0  0  0  0  0  0  0
   10.1808   -7.6139    0.5227 H   0  0  0  0  0  0  0  0  0  0  0  0
    9.5918   -6.3456    1.5868 H   0  0  0  0  0  0  0  0  0  0  0  0
   10.2927   -4.7325    0.1463 H   0  0  0  0  0  0  0  0  0  0  0  0
   10.4477   -5.7204   -1.1357 H   0  0  0  0  0  0  0  0  0  0  0  0
  1  2  1  0  0  0  0
  3  1  1  0  0  0  0
  4  3  1  0  0  0  0
  4  5  1  0  0  0  0
  6  4  1  0  0  0  0
  6  7  1  0  0  0  0
  8  6  1  0  0  0  0
  8  9  1  0  0  0  0
 10  8  1  0  0  0  0
 10 11  1  0  0  0  0
 12 10  1  0  0  0  0
 13 10  1  0  0  0  0
 14 13  1  0  0  0  0
 14 15  1  0  0  0  0
 14  4  1  0  0  0  0
 16 14  1  0  0  0  0
 17  8  1  0  0  0  0
 18  6  1  0  0  0  0
 19 18  1  0  0  0  0
 19 20  1  0  0  0  0
 21 19  1  0  0  0  0
 21 22  1  0  0  0  0
 23 21  1  0  0  0  0
 23 24  1  0  0  0  0
 25 23  1  0  0  0  0
 25 26  1  0  0  0  0
 27 25  1  0  0  0  0
 27 19  1  0  0  0  0
 28 25  1  0  0  0  0
 29 28  1  0  0  0  0
 30 23  1  0  0  0  0
 31 30  1  0  0  0  0
 31 32  1  0  0  0  0
 33 31  1  0  0  0  0
 33 34  1  0  0  0  0
 35 33  1  0  0  0  0
 35 36  1  0  0  0  0
 37 35  1  0  0  0  0
 37 38  1  0  0  0  0
 39 37  1  0  0  0  0
 39 40  1  0  0  0  0
 41 39  1  0  0  0  0
 41 31  1  0  0  0  0
 42 39  1  0  0  0  0
 43 42  1  0  0  0  0
 44 37  1  0  0  0  0
 45 35  1  0  0  0  0
 46 33  1  0  0  0  0
 47 21  1  0  0  0  0
 48  1  1  0  0  0  0
 48 49  1  0  0  0  0
 50 48  1  0  0  0  0
 51 48  1  0  0  0  0
 51 52  1  0  0  0  0
 53 51  1  0  0  0  0
 54 51  1  0  0  0  0
 54 55  1  0  0  0  0
 56 54  1  0  0  0  0
 57 54  1  0  0  0  0
 57 58  1  0  0  0  0
 59 57  1  0  0  0  0
 59  1  1  0  0  0  0
 60 57  1  0  0  0  0
 61 60  1  0  0  0  0
 12 62  1  0  0  0  0
 12 63  1  0  0  0  0
 13 64  1  0  0  0  0
 13 65  1  0  0  0  0
 16 66  1  0  0  0  0
 16 67  1  0  0  0  0
 17 68  1  0  0  0  0
 28 69  1  0  0  0  0
 28 70  1  0  0  0  0
 29 71  1  0  0  0  0
 42 72  1  0  0  0  0
 42 73  1  0  0  0  0
 43 74  1  0  0  0  0
 43 75  1  0  0  0  0
 44 76  1  0  0  0  0
 45 77  1  0  0  0  0
 46 78  1  0  0  0  0
 46 79  1  0  0  0  0
 47 80  1  0  0  0  0
 50 81  1  0  0  0  0
 50 82  1  0  0  0  0
 53 83  1  0  0  0  0
 56 84  1  0  0  0  0
 60 85  1  0  0  0  0
 60 86  1  0  0  0  0
 61 87  1  0  0  0  0
 61 88  1  0  0  0  0
M  END
>  <energy>
138.82639229028896

$$$$
