3NPQ_SAH_A_55
 OpenBabel03221817303D

 46 48  0  0  1  0  0  0  0  0999 V2000
    0.4753    1.0111   -9.1193 N   0  0  0  0  0  0  0  0  0  0  0  0
   -0.3544    2.1646   -8.6690 C   0  0  1  0  0  0  0  0  0  0  0  0
   -1.3786    1.9753   -9.0122 H   0  0  0  0  0  0  0  0  0  0  0  0
   -0.3789    2.3470   -7.1465 C   0  0  0  0  0  0  0  0  0  0  0  0
    0.9835    2.6602   -6.5295 C   0  0  0  0  0  0  0  0  0  0  0  0
    0.8054    2.8966   -4.7317 S   0  0  0  0  0  0  0  0  0  0  0  0
    2.5455    3.2595   -4.2817 C   0  0  0  0  0  0  0  0  0  0  0  0
    3.1337    4.4985   -4.9626 C   0  0  1  0  0  0  0  0  0  0  0  0
    3.1109    4.3843   -6.0517 H   0  0  0  0  0  0  0  0  0  0  0  0
    2.3763    5.6675   -4.6252 O   0  0  0  0  0  0  0  0  0  0  0  0
    3.2614    6.7884   -4.7648 C   0  0  2  0  0  0  0  0  0  0  0  0
    3.2575    7.1263   -5.8096 H   0  0  0  0  0  0  0  0  0  0  0  0
    4.6377    6.2872   -4.3144 C   0  0  1  0  0  0  0  0  0  0  0  0
    4.8007    6.4913   -3.2493 H   0  0  0  0  0  0  0  0  0  0  0  0
    4.5715    4.7725   -4.5193 C   0  0  2  0  0  0  0  0  0  0  0  0
    4.8124    4.2609   -3.5814 H   0  0  0  0  0  0  0  0  0  0  0  0
    5.4907    4.3067   -5.5060 O   0  0  0  0  0  0  0  0  0  0  0  0
    5.7336    6.8525   -5.0393 O   0  0  0  0  0  0  0  0  0  0  0  0
    2.7562    7.8831   -3.9595 N   0  0  0  0  0  0  0  0  0  0  0  0
    1.6075    7.8999   -3.2121 C   0  0  0  0  0  0  0  0  0  0  0  0
    1.4354    9.0493   -2.5939 N   0  0  0  0  0  0  0  0  0  0  0  0
    2.5046    9.8227   -2.9885 C   0  0  0  0  0  0  0  0  0  0  0  0
    2.8773   11.1423   -2.6835 C   0  0  0  0  0  0  0  0  0  0  0  0
    2.1323   11.9640   -1.8498 N   0  0  0  0  0  0  0  0  0  0  0  0
    4.0264   11.6230   -3.2086 N   0  0  0  0  0  0  0  0  0  0  0  0
    4.7489   10.8181   -4.0195 C   0  0  0  0  0  0  0  0  0  0  0  0
    4.5021    9.5350   -4.3786 N   0  0  0  0  0  0  0  0  0  0  0  0
    3.3510    9.1113   -3.8276 C   0  0  0  0  0  0  0  0  0  0  0  0
    0.1115    3.4265   -9.4205 C   0  0  0  0  0  0  0  0  0  0  0  0
   -0.0269    4.5766   -9.0444 O   0  0  0  0  0  0  0  0  0  0  0  0
    0.7075    3.0906  -10.5973 O   0  0  0  0  0  0  0  0  0  0  0  0
    0.1420    0.1740   -8.6312 H   0  0  0  0  0  0  0  0  0  0  0  0
    1.4360    1.1333   -8.7849 H   0  0  0  0  0  0  0  0  0  0  0  0
   -0.7949    1.4391   -6.6898 H   0  0  0  0  0  0  0  0  0  0  0  0
   -1.0758    3.1635   -6.9123 H   0  0  0  0  0  0  0  0  0  0  0  0
    1.3866    3.5705   -6.9758 H   0  0  0  0  0  0  0  0  0  0  0  0
    1.6864    1.8391   -6.6963 H   0  0  0  0  0  0  0  0  0  0  0  0
    3.1513    2.3725   -4.4915 H   0  0  0  0  0  0  0  0  0  0  0  0
    2.5394    3.4099   -3.1960 H   0  0  0  0  0  0  0  0  0  0  0  0
    6.1822    4.9996   -5.5721 H   0  0  0  0  0  0  0  0  0  0  0  0
    5.6700    7.8264   -4.9290 H   0  0  0  0  0  0  0  0  0  0  0  0
    0.9345    7.0514   -3.1545 H   0  0  0  0  0  0  0  0  0  0  0  0
    1.4884   11.4600   -1.2506 H   0  0  0  0  0  0  0  0  0  0  0  0
    2.6823   12.7073   -1.4396 H   0  0  0  0  0  0  0  0  0  0  0  0
    5.6488   11.2643   -4.4348 H   0  0  0  0  0  0  0  0  0  0  0  0
    0.7058    2.1025  -10.6416 H   0  0  0  0  0  0  0  0  0  0  0  0
  1  2  1  0  0  0  0
  1 32  1  0  0  0  0
  1 33  1  0  0  0  0
  2  3  1  6  0  0  0
  2  4  1  0  0  0  0
  2 29  1  0  0  0  0
  4  5  1  0  0  0  0
  4 34  1  0  0  0  0
  4 35  1  0  0  0  0
  5  6  1  0  0  0  0
  5 36  1  0  0  0  0
  5 37  1  0  0  0  0
  6  7  1  0  0  0  0
  7  8  1  0  0  0  0
  7 38  1  0  0  0  0
  7 39  1  0  0  0  0
  8  9  1  0  0  0  0
  8 10  1  0  0  0  0
  8 15  1  1  0  0  0
 10 11  1  0  0  0  0
 11 13  1  1  0  0  0
 11 19  1  0  0  0  0
 11 12  1  0  0  0  0
 13 14  1  0  0  0  0
 13 15  1  6  0  0  0
 13 18  1  0  0  0  0
 15 16  1  1  0  0  0
 15 17  1  0  0  0  0
 17 40  1  0  0  0  0
 18 41  1  0  0  0  0
 19 20  1  0  0  0  0
 19 28  1  0  0  0  0
 20 21  2  0  0  0  0
 20 42  1  0  0  0  0
 21 22  1  0  0  0  0
 22 23  2  0  0  0  0
 22 28  1  0  0  0  0
 23 24  1  0  0  0  0
 23 25  1  0  0  0  0
 24 43  1  0  0  0  0
 24 44  1  0  0  0  0
 25 26  2  0  0  0  0
 26 27  1  0  0  0  0
 26 45  1  0  0  0  0
 27 28  2  0  0  0  0
 29 30  2  0  0  0  0
 29 31  1  0  0  0  0
 31 46  1  0  0  0  0
M  END
$$$$
