@<TRIPOS>MOLECULE
3NPQ_SAH_A_55
 46 48 0 0 0
SMALL
GASTEIGER

@<TRIPOS>ATOM
      1 N1          0.4753    1.0111   -9.1193 N.3     1  <1>        -0.3184
      2 C1         -0.3544    2.1646   -8.6690 C.3     1  <1>         0.1040
      3 H1         -1.3786    1.9753   -9.0122 H       1  <1>         0.0574
      4 C2         -0.3789    2.3470   -7.1465 C.3     1  <1>        -0.0183
      5 C3          0.9835    2.6602   -6.5295 C.3     1  <1>        -0.0043
      6 S1          0.8054    2.8966   -4.7317 S.3     1  <1>        -0.1580
      7 C4          2.5455    3.2595   -4.2817 C.3     1  <1>         0.0226
      8 C5          3.1337    4.4985   -4.9626 C.3     1  <1>         0.0986
      9 H2          3.1109    4.3843   -6.0517 H       1  <1>         0.0632
     10 O1          2.3763    5.6675   -4.6252 O.3     1  <1>        -0.3471
     11 C6          3.2614    6.7884   -4.7648 C.3     1  <1>         0.1666
     12 H3          3.2575    7.1263   -5.8096 H       1  <1>         0.0866
     13 C7          4.6377    6.2872   -4.3144 C.3     1  <1>         0.1285
     14 H4          4.8007    6.4913   -3.2493 H       1  <1>         0.0665
     15 C8          4.5715    4.7725   -4.5193 C.3     1  <1>         0.1121
     16 H5          4.8124    4.2609   -3.5814 H       1  <1>         0.0647
     17 O2          5.4907    4.3067   -5.5060 O.3     1  <1>        -0.3865
     18 O3          5.7336    6.8525   -5.0393 O.3     1  <1>        -0.3847
     19 N2          2.7562    7.8831   -3.9595 N.ar    1  <1>        -0.2855
     20 C9          1.6075    7.8999   -3.2121 C.ar    1  <1>         0.1004
     21 N3          1.4354    9.0493   -2.5939 N.ar    1  <1>        -0.2306
     22 C10         2.5046    9.8227   -2.9885 C.ar    1  <1>         0.1473
     23 C11         2.8773   11.1423   -2.6835 C.ar    1  <1>         0.1472
     24 N4          2.1323   11.9640   -1.8498 N.pl3   1  <1>        -0.3413
     25 N5          4.0264   11.6230   -3.2086 N.ar    1  <1>        -0.2188
     26 C12         4.7489   10.8181   -4.0195 C.ar    1  <1>         0.1205
     27 N6          4.5021    9.5350   -4.3786 N.ar    1  <1>        -0.2159
     28 C13         3.3510    9.1113   -3.8276 C.ar    1  <1>         0.1674
     29 C14         0.1115    3.4265   -9.4205 C.2     1  <1>         0.3217
     30 O4         -0.0269    4.5766   -9.0444 O.2     1  <1>        -0.2493
     31 O5          0.7075    3.0906  -10.5973 O.3     1  <1>        -0.4795
     32 H6          0.1420    0.1740   -8.6312 H       1  <1>         0.1190
     33 H7          1.4360    1.1333   -8.7849 H       1  <1>         0.1190
     34 H8         -0.7949    1.4391   -6.6898 H       1  <1>         0.0293
     35 H9         -1.0758    3.1635   -6.9123 H       1  <1>         0.0293
     36 H10         1.3866    3.5705   -6.9758 H       1  <1>         0.0377
     37 H11         1.6864    1.8391   -6.6963 H       1  <1>         0.0377
     38 H12         3.1513    2.3725   -4.4915 H       1  <1>         0.0402
     39 H13         2.5394    3.4099   -3.1960 H       1  <1>         0.0402
     40 H14         6.1822    4.9996   -5.5721 H       1  <1>         0.2100
     41 H15         5.6700    7.8264   -4.9290 H       1  <1>         0.2101
     42 H16         0.9345    7.0514   -3.1545 H       1  <1>         0.1030
     43 H17         1.4884   11.4600   -1.2506 H       1  <1>         0.1438
     44 H18         2.6823   12.7073   -1.4396 H       1  <1>         0.1438
     45 H19         5.6488   11.2643   -4.4348 H       1  <1>         0.1048
     46 H20         0.7058    2.1025  -10.6416 H       1  <1>         0.2951
@<TRIPOS>BOND
     1     1     2    1
     2     1    32    1
     3     1    33    1
     4     2     3    1
     5     2     4    1
     6     2    29    1
     7     4     5    1
     8     4    34    1
     9     4    35    1
    10     5     6    1
    11     5    36    1
    12     5    37    1
    13     6     7    1
    14     7     8    1
    15     7    38    1
    16     7    39    1
    17     8     9    1
    18     8    10    1
    19     8    15    1
    20    10    11    1
    21    11    13    1
    22    11    19    1
    23    11    12    1
    24    13    14    1
    25    13    15    1
    26    13    18    1
    27    15    16    1
    28    15    17    1
    29    17    40    1
    30    18    41    1
    31    19    20   ar
    32    19    28   ar
    33    20    21   ar
    34    20    42    1
    35    21    22   ar
    36    22    23   ar
    37    22    28   ar
    38    23    24    1
    39    23    25   ar
    40    24    43    1
    41    24    44    1
    42    25    26   ar
    43    26    27   ar
    44    26    45    1
    45    27    28   ar
    46    29    30    2
    47    29    31    1
    48    31    46    1
