REMARK  5 active torsions:
REMARK  status: ('A' for Active; 'I' for Inactive)
REMARK    1  A    between atoms: C_1  and  O_2 
REMARK    2  A    between atoms: C_1  and  C_3 
REMARK    3  A    between atoms: C_3  and  O_4 
REMARK    4  A    between atoms: C_3  and  C_5 
REMARK    5  A    between atoms: C_5  and  O_6 
ROOT
ATOM      1  C   UNL d   1       2.399   0.045   0.105  0.00  0.00     0.165 C 
ENDROOT
BRANCH   1   2
ATOM      2  C   UNL d   1       0.881  -0.070  -0.006  0.00  0.00     0.198 C 
BRANCH   2   3
ATOM      3  O   UNL d   1       0.278   0.263   1.244  0.00  0.00    -0.398 OA
ATOM      4  H   UNL d   1       0.611   1.154   1.457  0.00  0.00     0.209 HD
ENDBRANCH   2   3
ENDBRANCH   1   2
BRANCH   1   5
ATOM      5  O   UNL d   1       2.709   1.360   0.592  0.00  0.00    -0.391 OA
ATOM      6  H   UNL d   1       3.407   1.248   1.274  0.00  0.00     0.210 HD
ENDBRANCH   1   5
BRANCH   1   7
ATOM      7  C   UNL d   1       2.998  -1.017   1.036  0.00  0.00     0.198 C 
BRANCH   7   8
ATOM      8  O   UNL d   1       4.417  -0.839   1.101  0.00  0.00    -0.398 OA
ATOM      9  H   UNL d   1       4.783  -0.976   0.206  0.00  0.00     0.209 HD
ENDBRANCH   7   8
ENDBRANCH   1   7
TORSDOF 5
