@<TRIPOS>MOLECULE
3DW4_GOL_A_1
 14 13 0 0 0
SMALL
GASTEIGER

@<TRIPOS>ATOM
      1 C           0.8809   -0.0700   -0.0064 C.3     1  UNL1        0.0723
      2 O           0.2776    0.2631    1.2439 O.3     1  UNL1       -0.3924
      3 C           2.3989    0.0453    0.1048 C.3     1  UNL1        0.1012
      4 O           2.7091    1.3600    0.5923 O.3     1  UNL1       -0.3873
      5 C           2.9981   -1.0170    1.0362 C.3     1  UNL1        0.0723
      6 O           4.4168   -0.8391    1.1007 O.3     1  UNL1       -0.3924
      7 H           0.4993    0.6408   -0.7470 H       1  UNL1        0.0583
      8 H           0.5722   -1.0748   -0.2940 H       1  UNL1        0.0583
      9 H           0.6114    1.1543    1.4570 H       1  UNL1        0.2095
     10 H           2.8578   -0.0507   -0.8903 H       1  UNL1        0.0639
     11 H           3.4068    1.2479    1.2745 H       1  UNL1        0.2100
     12 H           2.7807   -2.0273    0.7055 H       1  UNL1        0.0583
     13 H           2.6273   -0.8854    2.0669 H       1  UNL1        0.0583
     14 H           4.7827   -0.9758    0.2063 H       1  UNL1        0.2095
@<TRIPOS>BOND
     1     1     2    1
     2     1     3    1
     3     1     7    1
     4     1     8    1
     5     2     9    1
     6     3     4    1
     7     3     5    1
     8     3    10    1
     9     4    11    1
    10     5     6    1
    11     5    12    1
    12     5    13    1
    13     6    14    1
