3DW4_GOL_A_1
 OpenBabel03221817303D

 14 13  0  0  0  0  0  0  0  0999 V2000
    0.8809   -0.0700   -0.0064 C   0  0  0  0  0  0  0  0  0  0  0  0
    0.2776    0.2631    1.2439 O   0  0  0  0  0  0  0  0  0  0  0  0
    2.3989    0.0453    0.1048 C   0  0  0  0  0  0  0  0  0  0  0  0
    2.7091    1.3600    0.5923 O   0  0  0  0  0  0  0  0  0  0  0  0
    2.9981   -1.0170    1.0362 C   0  0  0  0  0  0  0  0  0  0  0  0
    4.4168   -0.8391    1.1007 O   0  0  0  0  0  0  0  0  0  0  0  0
    0.4993    0.6408   -0.7470 H   0  0  0  0  0  0  0  0  0  0  0  0
    0.5722   -1.0748   -0.2940 H   0  0  0  0  0  0  0  0  0  0  0  0
    0.6114    1.1543    1.4570 H   0  0  0  0  0  0  0  0  0  0  0  0
    2.8578   -0.0507   -0.8903 H   0  0  0  0  0  0  0  0  0  0  0  0
    3.4068    1.2479    1.2745 H   0  0  0  0  0  0  0  0  0  0  0  0
    2.7807   -2.0273    0.7055 H   0  0  0  0  0  0  0  0  0  0  0  0
    2.6273   -0.8854    2.0669 H   0  0  0  0  0  0  0  0  0  0  0  0
    4.7827   -0.9758    0.2063 H   0  0  0  0  0  0  0  0  0  0  0  0
  1  2  1  0  0  0  0
  1  3  1  0  0  0  0
  1  7  1  0  0  0  0
  1  8  1  0  0  0  0
  2  9  1  0  0  0  0
  3  4  1  0  0  0  0
  3  5  1  0  0  0  0
  3 10  1  0  0  0  0
  4 11  1  0  0  0  0
  5  6  1  0  0  0  0
  5 12  1  0  0  0  0
  5 13  1  0  0  0  0
  6 14  1  0  0  0  0
M  END
$$$$
