ligand.pdb
 OpenBabel03221813493D

 27 29  0  0  1  0  0  0  0  0999 V2000
   48.6610   58.4420   29.2340 N   0  0  0  0  0  0  0  0  0  0  0  0
   48.8920   57.7670   27.9530 C   0  0  2  0  0  0  0  0  0  0  0  0
   47.7280   58.0430   27.0180 C   0  0  0  0  0  0  0  0  0  0  0  0
   47.7470   57.6080   25.8700 O   0  0  0  0  0  0  0  0  0  0  0  0
   46.7930   58.7550   27.3850 O   0  0  0  0  0  0  0  0  0  0  0  0
   49.0510   56.2470   28.1560 C   0  0  0  0  0  0  0  0  0  0  0  0
   49.9240   55.9930   29.3840 C   0  0  0  0  0  0  0  0  0  0  0  0
   50.1800   54.2220   29.8110 S   0  0  2  0  0  0  0  0  0  0  0  0
   49.5470   53.3210   28.3620 C   0  0  0  0  0  0  0  0  0  0  0  0
   48.7810   54.0970   30.9450 C   0  0  0  0  0  0  0  0  0  0  0  0
   49.1420   54.3930   32.4110 C   0  0  1  0  0  0  0  0  0  0  0  0
   49.8260   55.6790   32.4830 O   0  0  0  0  0  0  0  0  0  0  0  0
   47.7930   54.6040   33.0490 C   0  0  1  0  0  0  0  0  0  0  0  0
   47.3570   53.3950   33.6710 O   0  0  0  0  0  0  0  0  0  0  0  0
   48.0450   55.6800   34.0980 C   0  0  1  0  0  0  0  0  0  0  0  0
   48.2580   55.1280   35.3920 O   0  0  0  0  0  0  0  0  0  0  0  0
   49.3150   56.4730   33.6180 C   0  0  2  0  0  0  0  0  0  0  0  0
   49.0190   57.8070   33.0550 N   0  0  0  0  0  0  0  0  0  0  0  0
   49.9410   58.8040   32.8970 C   0  0  0  0  0  0  0  0  0  0  0  0
   49.3910   59.8630   32.3790 N   0  0  0  0  0  0  0  0  0  0  0  0
   48.0840   59.6180   32.1580 C   0  0  0  0  0  0  0  0  0  0  0  0
   47.0000   60.3560   31.6190 C   0  0  0  0  0  0  0  0  0  0  0  0
   47.1790   61.6490   31.1810 N   0  0  0  0  0  0  0  0  0  0  0  0
   45.7940   59.7700   31.5410 N   0  0  0  0  0  0  0  0  0  0  0  0
   45.5960   58.5120   31.9500 C   0  0  0  0  0  0  0  0  0  0  0  0
   46.5780   57.7970   32.4760 N   0  0  0  0  0  0  0  0  0  0  0  0
   47.8210   58.2930   32.5910 C   0  0  0  0  0  0  0  0  0  0  0  0
  2  3  1  0  0  0  0
  2  6  1  0  0  0  0
  2  1  1  1  0  0  0
  3  4  2  0  0  0  0
  3  5  1  0  0  0  0
  6  7  1  0  0  0  0
  7  8  1  0  0  0  0
  8  9  1  6  0  0  0
  8 10  1  0  0  0  0
 11 12  1  0  0  0  0
 11 13  1  0  0  0  0
 11 10  1  6  0  0  0
 12 17  1  0  0  0  0
 13 14  1  1  0  0  0
 13 15  1  0  0  0  0
 15 16  1  1  0  0  0
 15 17  1  0  0  0  0
 17 18  1  6  0  0  0
 18 19  1  0  0  0  0
 18 27  1  0  0  0  0
 19 20  2  0  0  0  0
 20 21  1  0  0  0  0
 21 22  1  0  0  0  0
 21 27  2  0  0  0  0
 22 23  1  0  0  0  0
 22 24  2  0  0  0  0
 24 25  1  0  0  0  0
 25 26  2  0  0  0  0
 26 27  1  0  0  0  0
M  END
>  <HEADER>
    RNA                                     29-MAR-06   2GIS              

>  <TITLE>
    STRUCTURE OF THE S-ADENOSYLMETHIONINE RIBOSWITCH MRNA                 
   2 REGULATORY ELEMENT                                                   

>  <COMPND>
    MOL_ID: 1;                                                            
   2 MOLECULE: SAM-I RIBOSWITCH;                                          
   3 CHAIN: A;                                                            
   4 ENGINEERED: YES                                                      

>  <SOURCE>
    MOL_ID: 1;                                                            
   2 SYNTHETIC: YES;                                                      
   3 OTHER_DETAILS: THIS SEQUENCE WAS ENGINEERED BASED ON THE             
   4 SAM-I RIBOSWITCH FROM THE METF-METH OPERON IN                        
   5 THERMOANAEROBACTER TENGCONGENSIS                                     

>  <KEYWDS>
    MRNA, RIBOSWITCH, S-ADENOSYLMETHIONINE, SAM, RNA-LIGAND               
   2 COMPLEX                                                              

>  <EXPDTA>
    X-RAY DIFFRACTION                                                     

>  <AUTHOR>
    R.K.MONTANGE,R.T.BATEY                                                

>  <REVDAT>
   2   24-FEB-09 2GIS    1       VERSN                                    
   1   04-JUL-06 2GIS    0                                                

>  <JRNL>
      AUTH   R.K.MONTANGE,R.T.BATEY                                       
      TITL   STRUCTURE OF THE S-ADENOSYLMETHIONINE RIBOSWITCH             
      TITL 2 REGULATORY MRNA ELEMENT.                                     
      REF    NATURE                        V. 441  1172 2006              
      REFN                   ISSN 0028-0836                               
      PMID   16810258                                                     
      DOI    10.1038/NATURE04819                                          

>  <REMARK>
   1                                                                      
   2                                                                      
   2 RESOLUTION.    2.90 ANGSTROMS.                                       
   3                                                                      
   3 REFINEMENT.                                                          
   3   PROGRAM     : CNS 1.1                                              
   3   AUTHORS     : BRUNGER,ADAMS,CLORE,DELANO,GROS,GROSSE-              
   3               : KUNSTLEVE,JIANG,KUSZEWSKI,NILGES, PANNU,             
   3               : READ,RICE,SIMONSON,WARREN                            
   3                                                                      
   3  REFINEMENT TARGET : ENGH & HUBER                                    
   3                                                                      
   3  DATA USED IN REFINEMENT.                                            
   3   RESOLUTION RANGE HIGH (ANGSTROMS) : 2.90                           
   3   RESOLUTION RANGE LOW  (ANGSTROMS) : 49.32                          
   3   DATA CUTOFF            (SIGMA(F)) : 0.000                          
   3   DATA CUTOFF HIGH         (ABS(F)) : 441185.100                     
   3   DATA CUTOFF LOW          (ABS(F)) : 0.0000                         
   3   COMPLETENESS (WORKING+TEST)   (%) : 99.3                           
   3   NUMBER OF REFLECTIONS             : 13415                          
   3                                                                      
   3  FIT TO DATA USED IN REFINEMENT.                                     
   3   CROSS-VALIDATION METHOD          : THROUGHOUT                      
   3   FREE R VALUE TEST SET SELECTION  : RANDOM                          
   3   R VALUE            (WORKING SET) : 0.266                           
   3   FREE R VALUE                     : 0.289                           
   3   FREE R VALUE TEST SET SIZE   (%) : 7.400                           
   3   FREE R VALUE TEST SET COUNT      : 999                             
   3   ESTIMATED ERROR OF FREE R VALUE  : 0.009                           
   3                                                                      
   3  FIT IN THE HIGHEST RESOLUTION BIN.                                  
   3   TOTAL NUMBER OF BINS USED           : 6                            
   3   BIN RESOLUTION RANGE HIGH       (A) : 2.90                         
   3   BIN RESOLUTION RANGE LOW        (A) : 3.08                         
   3   BIN COMPLETENESS (WORKING+TEST) (%) : 98.90                        
   3   REFLECTIONS IN BIN    (WORKING SET) : 2056                         
   3   BIN R VALUE           (WORKING SET) : 0.4270                       
   3   BIN FREE R VALUE                    : 0.4160                       
   3   BIN FREE R VALUE TEST SET SIZE  (%) : 7.30                         
   3   BIN FREE R VALUE TEST SET COUNT     : 162                          
   3   ESTIMATED ERROR OF BIN FREE R VALUE : 0.033                        
   3                                                                      
   3  NUMBER OF NON-HYDROGEN ATOMS USED IN REFINEMENT.                    
   3   PROTEIN ATOMS            : 0                                       
   3   NUCLEIC ACID ATOMS       : 2029                                    
   3   HETEROGEN ATOMS          : 57                                      
   3   SOLVENT ATOMS            : 88                                      
   3                                                                      
   3  B VALUES.                                                           
   3   FROM WILSON PLOT           (A**2) : 139.30                         
   3   MEAN B VALUE      (OVERALL, A**2) : 69.60                          
   3   OVERALL ANISOTROPIC B VALUE.                                       
   3    B11 (A**2) : 11.87000                                             
   3    B22 (A**2) : 11.87000                                             
   3    B33 (A**2) : -23.74000                                            
   3    B12 (A**2) : 0.00000                                              
   3    B13 (A**2) : 0.00000                                              
   3    B23 (A**2) : 0.00000                                              
   3                                                                      
   3  ESTIMATED COORDINATE ERROR.                                         
   3   ESD FROM LUZZATI PLOT        (A) : 0.39                            
   3   ESD FROM SIGMAA              (A) : 0.39                            
   3   LOW RESOLUTION CUTOFF        (A) : 5.00                            
   3                                                                      
   3  CROSS-VALIDATED ESTIMATED COORDINATE ERROR.                         
   3   ESD FROM C-V LUZZATI PLOT    (A) : 0.48                            
   3   ESD FROM C-V SIGMAA          (A) : 0.35                            
   3                                                                      
   3  RMS DEVIATIONS FROM IDEAL VALUES.                                   
   3   BOND LENGTHS                 (A) : 0.010                           
   3   BOND ANGLES            (DEGREES) : 1.60                            
   3   DIHEDRAL ANGLES        (DEGREES) : 17.30                           
   3   IMPROPER ANGLES        (DEGREES) : 2.31                            
   3                                                                      
   3  ISOTROPIC THERMAL MODEL : RESTRAINED                                
   3                                                                      
   3  ISOTROPIC THERMAL FACTOR RESTRAINTS.    RMS    SIGMA                
   3   MAIN-CHAIN BOND              (A**2) : 1.380 ; 1.500                
   3   MAIN-CHAIN ANGLE             (A**2) : 2.560 ; 2.000                
   3   SIDE-CHAIN BOND              (A**2) : 1.630 ; 2.000                
   3   SIDE-CHAIN ANGLE             (A**2) : 2.610 ; 2.500                
   3                                                                      
   3  BULK SOLVENT MODELING.                                              
   3   METHOD USED : FLAT MODEL                                           
   3   KSOL        : 0.88                                                 
   3   BSOL        : 300.00                                               
   3                                                                      
   3  NCS MODEL : NULL                                                    
   3                                                                      
   3  NCS RESTRAINTS.                         RMS   SIGMA/WEIGHT          
   3   GROUP  1  POSITIONAL            (A) : NULL  ; NULL                 
   3   GROUP  1  B-FACTOR           (A**2) : NULL  ; NULL                 
   3                                                                      
   3  PARAMETER FILE  1  : DNA-RNA_REP.PARAM                              
   3  PARAMETER FILE  2  : ION2.PARAM                                     
   3  PARAMETER FILE  3  : SAM3.PARAM                                     
   3  PARAMETER FILE  4  : WATER_REP.PARAM                                
   3  PARAMETER FILE  5  : NULL                                           
   3  TOPOLOGY FILE  1   : DNA-RNA_REP.TOP                                
   3  TOPOLOGY FILE  2   : ION2.TOP                                       
   3  TOPOLOGY FILE  3   : SAM3.TOP                                       
   3  TOPOLOGY FILE  4   : WATER_REP.TOP                                  
   3  TOPOLOGY FILE  5   : NULL                                           
   3                                                                      
   3  OTHER REFINEMENT REMARKS: NULL                                      
   4                                                                      
   4 2GIS COMPLIES WITH FORMAT V. 3.15, 01-DEC-08                         
 100                                                                      
 100 THIS ENTRY HAS BEEN PROCESSED BY RCSB ON 14-APR-06.                  
 100 THE RCSB ID CODE IS RCSB037170.                                      
 200                                                                      
 200 EXPERIMENTAL DETAILS                                                 
 200  EXPERIMENT TYPE                : X-RAY DIFFRACTION                  
 200  DATE OF DATA COLLECTION        : 11-NOV-05                          
 200  TEMPERATURE           (KELVIN) : 100                                
 200  PH                             : NULL                               
 200  NUMBER OF CRYSTALS USED        : 1                                  
 200                                                                      
 200  SYNCHROTRON              (Y/N) : Y                                  
 200  RADIATION SOURCE               : ALS                                
 200  BEAMLINE                       : 8.2.1                              
 200  X-RAY GENERATOR MODEL          : NULL                               
 200  MONOCHROMATIC OR LAUE    (M/L) : M                                  
 200  WAVELENGTH OR RANGE        (A) : 1.10532, 1.10573                   
 200  MONOCHROMATOR                  : NULL                               
 200  OPTICS                         : NULL                               
 200                                                                      
 200  DETECTOR TYPE                  : CCD                                
 200  DETECTOR MANUFACTURER          : ADSC QUANTUM 315                   
 200  INTENSITY-INTEGRATION SOFTWARE : BOS                                
 200  DATA SCALING SOFTWARE          : D*TREK                             
 200                                                                      
 200  NUMBER OF UNIQUE REFLECTIONS   : 14940                              
 200  RESOLUTION RANGE HIGH      (A) : 2.900                              
 200  RESOLUTION RANGE LOW       (A) : 49.320                             
 200  REJECTION CRITERIA  (SIGMA(I)) : 3.000                              
 200                                                                      
 200 OVERALL.                                                             
 200  COMPLETENESS FOR RANGE     (%) : 99.6                               
 200  DATA REDUNDANCY                : 14.640                             
 200  R MERGE                    (I) : 0.07200                            
 200  R SYM                      (I) : NULL                               
 200  <I/SIGMA(I)> FOR THE DATA SET  : 17.9000                            
 200                                                                      
 200 IN THE HIGHEST RESOLUTION SHELL.                                     
 200  HIGHEST RESOLUTION SHELL, RANGE HIGH (A) : 2.90                     
 200  HIGHEST RESOLUTION SHELL, RANGE LOW  (A) : 3.08                     
 200  COMPLETENESS FOR SHELL     (%) : 99.9                               
 200  DATA REDUNDANCY IN SHELL       : 11.74                              
 200  R MERGE FOR SHELL          (I) : 0.42600                            
 200  R SYM FOR SHELL            (I) : NULL                               
 200  <I/SIGMA(I)> FOR SHELL         : 4.400                              
 200                                                                      
 200 DIFFRACTION PROTOCOL: MAD                                            
 200 METHOD USED TO DETERMINE THE STRUCTURE: MAD                          
 200 SOFTWARE USED: CNS                                                   
 200 STARTING MODEL: NULL                                                 
 200                                                                      
 200 REMARK: NULL                                                         
 280                                                                      
 280 CRYSTAL                                                              
 280 SOLVENT CONTENT, VS   (%): 52.20                                     
 280 MATTHEWS COEFFICIENT, VM (ANGSTROMS**3/DA): 2.57                     
 280                                                                      
 280 CRYSTALLIZATION CONDITIONS: NULL                                     
 290                                                                      
 290 CRYSTALLOGRAPHIC SYMMETRY                                            
 290 SYMMETRY OPERATORS FOR SPACE GROUP: P 43 21 2                        
 290                                                                      
 290      SYMOP   SYMMETRY                                                
 290     NNNMMM   OPERATOR                                                
 290       1555   X,Y,Z                                                   
 290       2555   -X,-Y,Z+1/2                                             
 290       3555   -Y+1/2,X+1/2,Z+3/4                                      
 290       4555   Y+1/2,-X+1/2,Z+1/4                                      
 290       5555   -X+1/2,Y+1/2,-Z+3/4                                     
 290       6555   X+1/2,-Y+1/2,-Z+1/4                                     
 290       7555   Y,X,-Z                                                  
 290       8555   -Y,-X,-Z+1/2                                            
 290                                                                      
 290     WHERE NNN -> OPERATOR NUMBER                                     
 290           MMM -> TRANSLATION VECTOR                                  
 290                                                                      
 290 CRYSTALLOGRAPHIC SYMMETRY TRANSFORMATIONS                            
 290 THE FOLLOWING TRANSFORMATIONS OPERATE ON THE ATOM/HETATM             
 290 RECORDS IN THIS ENTRY TO PRODUCE CRYSTALLOGRAPHICALLY                
 290 RELATED MOLECULES.                                                   
 290   SMTRY1   1  1.000000  0.000000  0.000000        0.00000            
 290   SMTRY2   1  0.000000  1.000000  0.000000        0.00000            
 290   SMTRY3   1  0.000000  0.000000  1.000000        0.00000            
 290   SMTRY1   2 -1.000000  0.000000  0.000000        0.00000            
 290   SMTRY2   2  0.000000 -1.000000  0.000000        0.00000            
 290   SMTRY3   2  0.000000  0.000000  1.000000       79.48350            
 290   SMTRY1   3  0.000000 -1.000000  0.000000       31.45050            
 290   SMTRY2   3  1.000000  0.000000  0.000000       31.45050            
 290   SMTRY3   3  0.000000  0.000000  1.000000      119.22525            
 290   SMTRY1   4  0.000000  1.000000  0.000000       31.45050            
 290   SMTRY2   4 -1.000000  0.000000  0.000000       31.45050            
 290   SMTRY3   4  0.000000  0.000000  1.000000       39.74175            
 290   SMTRY1   5 -1.000000  0.000000  0.000000       31.45050            
 290   SMTRY2   5  0.000000  1.000000  0.000000       31.45050            
 290   SMTRY3   5  0.000000  0.000000 -1.000000      119.22525            
 290   SMTRY1   6  1.000000  0.000000  0.000000       31.45050            
 290   SMTRY2   6  0.000000 -1.000000  0.000000       31.45050            
 290   SMTRY3   6  0.000000  0.000000 -1.000000       39.74175            
 290   SMTRY1   7  0.000000  1.000000  0.000000        0.00000            
 290   SMTRY2   7  1.000000  0.000000  0.000000        0.00000            
 290   SMTRY3   7  0.000000  0.000000 -1.000000        0.00000            
 290   SMTRY1   8  0.000000 -1.000000  0.000000        0.00000            
 290   SMTRY2   8 -1.000000  0.000000  0.000000        0.00000            
 290   SMTRY3   8  0.000000  0.000000 -1.000000       79.48350            
 290                                                                      
 290 REMARK: NULL                                                         
 300                                                                      
 300 BIOMOLECULE: 1                                                       
 300 SEE REMARK 350 FOR THE AUTHOR PROVIDED AND/OR PROGRAM                
 300 GENERATED ASSEMBLY INFORMATION FOR THE STRUCTURE IN                  
 300 THIS ENTRY. THE REMARK MAY ALSO PROVIDE INFORMATION ON               
 300 BURIED SURFACE AREA.                                                 
 350                                                                      
 350 COORDINATES FOR A COMPLETE MULTIMER REPRESENTING THE KNOWN           
 350 BIOLOGICALLY SIGNIFICANT OLIGOMERIZATION STATE OF THE                
 350 MOLECULE CAN BE GENERATED BY APPLYING BIOMT TRANSFORMATIONS          
 350 GIVEN BELOW.  BOTH NON-CRYSTALLOGRAPHIC AND                          
 350 CRYSTALLOGRAPHIC OPERATIONS ARE GIVEN.                               
 350                                                                      
 350 BIOMOLECULE: 1                                                       
 350 AUTHOR DETERMINED BIOLOGICAL UNIT: MONOMERIC                         
 350 APPLY THE FOLLOWING TO CHAINS: A                                     
 350   BIOMT1   1  1.000000  0.000000  0.000000        0.00000            
 350   BIOMT2   1  0.000000  1.000000  0.000000        0.00000            
 350   BIOMT3   1  0.000000  0.000000  1.000000        0.00000            
 500                                                                      
 500 GEOMETRY AND STEREOCHEMISTRY                                         
 500 SUBTOPIC: CLOSE CONTACTS IN SAME ASYMMETRIC UNIT                     
 500                                                                      
 500 THE FOLLOWING ATOMS ARE IN CLOSE CONTACT.                            
 500                                                                      
 500  ATM1  RES C  SSEQI   ATM2  RES C  SSEQI           DISTANCE          
 500   O2'  A   A    20     O4'  G   A    21              2.13            
 500   O2'  A   A    20     OP2  G   A    21              2.18            
 500                                                                      
 500 REMARK: NULL                                                         
 500                                                                      
 500 GEOMETRY AND STEREOCHEMISTRY                                         
 500 SUBTOPIC: CLOSE CONTACTS                                             
 500                                                                      
 500 THE FOLLOWING ATOMS THAT ARE RELATED BY CRYSTALLOGRAPHIC             
 500 SYMMETRY ARE IN CLOSE CONTACT.  AN ATOM LOCATED WITHIN 0.15          
 500 ANGSTROMS OF A SYMMETRY RELATED ATOM IS ASSUMED TO BE ON A           
 500 SPECIAL POSITION AND IS, THEREFORE, LISTED IN REMARK 375             
 500 INSTEAD OF REMARK 500.  ATOMS WITH NON-BLANK ALTERNATE               
 500 LOCATION INDICATORS ARE NOT INCLUDED IN THE CALCULATIONS.            
 500                                                                      
 500 DISTANCE CUTOFF:                                                     
 500 2.2 ANGSTROMS FOR CONTACTS NOT INVOLVING HYDROGEN ATOMS              
 500 1.6 ANGSTROMS FOR CONTACTS INVOLVING HYDROGEN ATOMS                  
 500                                                                      
 500  ATM1  RES C  SSEQI   ATM2  RES C  SSEQI  SSYMOP   DISTANCE          
 500   N3   IRI A   201     N3   IRI A   201     7555     1.02            
 500  IR    IRI A   201     N3   IRI A   201     7555     2.10            
 500                                                                      
 500 REMARK: NULL                                                         
 500                                                                      
 500 GEOMETRY AND STEREOCHEMISTRY                                         
 500 SUBTOPIC: COVALENT BOND LENGTHS                                      
 500                                                                      
 500 THE STEREOCHEMICAL PARAMETERS OF THE FOLLOWING RESIDUES              
 500 HAVE VALUES WHICH DEVIATE FROM EXPECTED VALUES BY MORE               
 500 THAN 6*RMSD (M=MODEL NUMBER; RES=RESIDUE NAME; C=CHAIN               
 500 IDENTIFIER; SSEQ=SEQUENCE NUMBER; I=INSERTION CODE).                 
 500                                                                      
 500 STANDARD TABLE:                                                      
 500 FORMAT: (10X,I3,1X,2(A3,1X,A1,I4,A1,1X,A4,3X),1X,F6.3)               
 500                                                                      
 500 EXPECTED VALUES PROTEIN: ENGH AND HUBER, 1999                        
 500 EXPECTED VALUES NUCLEIC ACID: CLOWNEY ET AL 1996                     
 500                                                                      
 500  M RES CSSEQI ATM1   RES CSSEQI ATM2   DEVIATION                     
 500      G A   1   P       G A   1   OP3    -0.078                       
 500                                                                      
 500 REMARK: NULL                                                         
 500                                                                      
 500 GEOMETRY AND STEREOCHEMISTRY                                         
 500 SUBTOPIC: COVALENT BOND ANGLES                                       
 500                                                                      
 500 THE STEREOCHEMICAL PARAMETERS OF THE FOLLOWING RESIDUES              
 500 HAVE VALUES WHICH DEVIATE FROM EXPECTED VALUES BY MORE               
 500 THAN 6*RMSD (M=MODEL NUMBER; RES=RESIDUE NAME; C=CHAIN               
 500 IDENTIFIER; SSEQ=SEQUENCE NUMBER; I=INSERTION CODE).                 
 500                                                                      
 500 STANDARD TABLE:                                                      
 500 FORMAT: (10X,I3,1X,A3,1X,A1,I4,A1,3(1X,A4,2X),12X,F5.1)              
 500                                                                      
 500 EXPECTED VALUES PROTEIN: ENGH AND HUBER, 1999                        
 500 EXPECTED VALUES NUCLEIC ACID: CLOWNEY ET AL 1996                     
 500                                                                      
 500  M RES CSSEQI ATM1   ATM2   ATM3                                     
 500      A A   9   C2' -  C3' -  O3' ANGL. DEV. =  12.3 DEGREES          
 500      A A  33   C2' -  C3' -  O3' ANGL. DEV. =  12.6 DEGREES          
 500      G A  50   C4' -  C3' -  O3' ANGL. DEV. =  13.7 DEGREES          
 500      G A  50   C2' -  C3' -  O3' ANGL. DEV. =  10.0 DEGREES          
 500      G A  50   N9  -  C1' -  C2' ANGL. DEV. =  -8.2 DEGREES          
 500      U A  63   C2' -  C3' -  O3' ANGL. DEV. =  15.3 DEGREES          
 500      G A  74   C4' -  C3' -  O3' ANGL. DEV. =  12.7 DEGREES          
 500      G A  74   C2' -  C3' -  O3' ANGL. DEV. =  11.3 DEGREES          
 500      G A  74   N9  -  C1' -  C2' ANGL. DEV. =  -7.3 DEGREES          
 500                                                                      
 500 REMARK: NULL                                                         
 500                                                                      
 500 GEOMETRY AND STEREOCHEMISTRY                                         
 500 SUBTOPIC: PLANAR GROUPS                                              
 500                                                                      
 500 PLANAR GROUPS IN THE FOLLOWING RESIDUES HAVE A TOTAL                 
 500 RMS DISTANCE OF ALL ATOMS FROM THE BEST-FIT PLANE                    
 500 BY MORE THAN AN EXPECTED VALUE OF 6*RMSD, WITH AN                    
 500 RMSD 0.02 ANGSTROMS, OR AT LEAST ONE ATOM HAS                        
 500 AN RMSD GREATER THAN THIS VALUE                                      
 500 (M=MODEL NUMBER; RES=RESIDUE NAME; C=CHAIN IDENTIFIER;               
 500 SSEQ=SEQUENCE NUMBER; I=INSERTION CODE).                             
 500                                                                      
 500  M RES CSSEQI        RMS     TYPE                                    
 500      G A  19         0.05    SIDE_CHAIN                              
 500      G A  35         0.06    SIDE_CHAIN                              
 500      G A  50         0.07    SIDE_CHAIN                              
 500      U A  67         0.08    SIDE_CHAIN                              
 500      G A  74         0.08    SIDE_CHAIN                              
 500                                                                      
 500 REMARK: NULL                                                         
 620                                                                      
 620 METAL COORDINATION                                                   
 620  (M=MODEL NUMBER; RES=RESIDUE NAME; C=CHAIN IDENTIFIER;              
 620  SSEQ=SEQUENCE NUMBER; I=INSERTION CODE):                            
 620                                                                      
 620 COORDINATION ANGLES FOR:  M RES CSSEQI METAL                         
 620                              MG A 205  MG                            
 620 N RES CSSEQI ATOM                                                    
 620 1   A A  10   OP2                                                    
 620 2   U A  63   O3'  95.0                                              
 620 3   U A  64   OP2 133.2  53.2                                        
 620 N                    1     2                                         
 620                                                                      
 620 COORDINATION ANGLES FOR:  M RES CSSEQI METAL                         
 620                              MG A 206  MG                            
 620 N RES CSSEQI ATOM                                                    
 620 1   A A  84   O5'                                                    
 620 2   A A  84   O3' 115.5                                              
 620 3   A A  85   OP2 130.4  63.5                                        
 620 4   A A  84   OP1  62.8 164.4 130.5                                  
 620 N                    1     2     3                                   
 800                                                                      
 800 SITE                                                                 
 800 SITE_IDENTIFIER: AC1                                                 
 800 EVIDENCE_CODE: SOFTWARE                                              
 800 SITE_DESCRIPTION: BINDING SITE FOR RESIDUE MG A 205                  
 800 SITE_IDENTIFIER: AC2                                                 
 800 EVIDENCE_CODE: SOFTWARE                                              
 800 SITE_DESCRIPTION: BINDING SITE FOR RESIDUE MG A 206                  
 800 SITE_IDENTIFIER: AC3                                                 
 800 EVIDENCE_CODE: SOFTWARE                                              
 800 SITE_DESCRIPTION: BINDING SITE FOR RESIDUE IRI A 201                 
 800 SITE_IDENTIFIER: AC4                                                 
 800 EVIDENCE_CODE: SOFTWARE                                              
 800 SITE_DESCRIPTION: BINDING SITE FOR RESIDUE IRI A 202                 
 800 SITE_IDENTIFIER: AC5                                                 
 800 EVIDENCE_CODE: SOFTWARE                                              
 800 SITE_DESCRIPTION: BINDING SITE FOR RESIDUE IRI A 203                 
 800 SITE_IDENTIFIER: AC6                                                 
 800 EVIDENCE_CODE: SOFTWARE                                              
 800 SITE_DESCRIPTION: BINDING SITE FOR RESIDUE IRI A 204                 
 800 SITE_IDENTIFIER: AC7                                                 
 800 EVIDENCE_CODE: SOFTWARE                                              
 800 SITE_DESCRIPTION: BINDING SITE FOR RESIDUE SAM A 301                 

>  <DBREF>
 2GIS A    1    94  PDB    2GIS     2GIS             1     94             

>  <SEQRES>
   1 A   94    G   G   C   U   U   A   U   C   A   A   G   A   G          
   2 A   94    A   G   G   U   G   G   A   G   G   G   A   C   U          
   3 A   94    G   G   C   C   C   G   A   U   G   A   A   A   C          
   4 A   94    C   C   G   G   C   A   A   C   C   A   G   A   A          
   5 A   94    A   U   G   G   U   G   C   C   A   A   U   U   C          
   6 A   94    C   U   G   C   A   G   C   G   G   A   A   A   C          
   7 A   94    G   U   U   G   A   A   A   G   A   U   G   A   G          
   8 A   94    C   C   A                                                  

>  <HET>
  MG  A 205       1                                                       
  MG  A 206       1                                                       
 IRI  A 201       7                                                       
 IRI  A 202       7                                                       
 IRI  A 203       7                                                       
 IRI  A 204       7                                                       
 SAM  A 301      27                                                       

>  <HETNAM>
      MG MAGNESIUM ION                                                    
     IRI IRIDIUM HEXAMMINE ION                                            
     SAM S-ADENOSYLMETHIONINE                                             

>  <FORMUL>
   2   MG    2(MG 2+)                                                     
   4  IRI    4(H18 IR N6 3+)                                              
   8  SAM    C15 H22 N6 O5 S                                              
   9  HOH   *88(H2 O)                                                     

>  <LINK>
      MG    MG A 205                 OP2   A A  10     1555   1555  2.88  
      MG    MG A 205                 O3'   U A  63     1555   1555  2.88  
      MG    MG A 205                 OP2   U A  64     1555   1555  2.42  
      MG    MG A 206                 O5'   A A  84     1555   1555  1.93  
      MG    MG A 206                 O3'   A A  84     1555   1555  2.35  
      MG    MG A 206                 OP2   A A  85     1555   1555  2.46  
      MG    MG A 206                 OP1   A A  84     1555   1555  2.71  

>  <SITE>
   1 AC1  4   A A   9    A A  10    U A  63    U A  64                    
   1 AC2  2   A A  84    A A  85                                          
   1 AC3  5   C A  31    G A  32    A A  33    U A  34                    
   2 AC3  5 HOH A 448                                                     
   1 AC4  6   G A  15    G A  16    U A  17    G A  18                    
   2 AC4  6   A A  36    A A  38                                          
   1 AC5  6   G A  23    C A  25    U A  26    G A  27                    
   2 AC5  6   G A  28    C A  29                                          
   1 AC6  6   U A   4    U A   5    A A   6    U A  88                    
   2 AC6  6   G A  89  HOH A 475                                          
   1 AC7 11   U A   7    G A  11    A A  45    A A  46                    
   2 AC7 11   C A  47    U A  57    G A  58    C A  59                    
   3 AC7 11   U A  88    G A  89  HOH A 437                               

>  <ORIGX1>
      1.000000  0.000000  0.000000        0.00000                         

>  <ORIGX2>
      0.000000  1.000000  0.000000        0.00000                         

>  <ORIGX3>
      0.000000  0.000000  1.000000        0.00000                         

>  <SCALE1>
      0.015898  0.000000  0.000000        0.00000                         

>  <SCALE2>
      0.000000  0.015898  0.000000        0.00000                         

>  <SCALE3>
      0.000000  0.000000  0.006291        0.00000                         

$$$$
