@<TRIPOS>MOLECULE
ligand.pdb
 27 29 0 0 0
SMALL
GASTEIGER

@<TRIPOS>ATOM
      1 N          48.6610   58.4420   29.2340 N.3     1  UNL1       -0.1208
      2 CA         48.8920   57.7670   27.9530 C.3     1  UNL1        0.1952
      3 C          47.7280   58.0430   27.0180 C.2     1  UNL1        0.3819
      4 O          47.7470   57.6080   25.8700 O.co2   1  UNL1       -0.2441
      5 OXT        46.7930   58.7550   27.3850 O.co2   1  UNL1       -0.2441
      6 C          49.0510   56.2470   28.1560 C.3     1  UNL1        0.0414
      7 C          49.9240   55.9930   29.3840 C.3     1  UNL1        0.0503
      8 S          50.1800   54.2220   29.8110 S.3     1  UNL1       -0.1761
      9 C          49.5470   53.3210   28.3620 C.3     1  UNL1        0.0590
     10 C          48.7810   54.0970   30.9450 C.3     1  UNL1        0.0805
     11 C          49.1420   54.3930   32.4110 C.3     1  UNL1        0.1602
     12 O          49.8260   55.6790   32.4830 O.3     1  UNL1       -0.3324
     13 C          47.7930   54.6040   33.0490 C.3     1  UNL1        0.2144
     14 O          47.3570   53.3950   33.6710 O.3     1  UNL1       -0.2176
     15 C          48.0450   55.6800   34.0980 C.3     1  UNL1        0.2336
     16 O          48.2580   55.1280   35.3920 O.3     1  UNL1       -0.2155
     17 C          49.3150   56.4730   33.6180 C.3     1  UNL1        0.2409
     18 N          49.0190   57.8070   33.0550 N.ar    1  UNL1       -0.2693
     19 C          49.9410   58.8040   32.8970 C.ar    1  UNL1        0.1816
     20 N          49.3910   59.8630   32.3790 N.ar    1  UNL1       -0.2193
     21 C          48.0840   59.6180   32.1580 C.ar    1  UNL1        0.1518
     22 C          47.0000   60.3560   31.6190 C.ar    1  UNL1        0.1919
     23 N          47.1790   61.6490   31.1810 N.pl3   1  UNL1       -0.1054
     24 N          45.7940   59.7700   31.5410 N.ar    1  UNL1       -0.2040
     25 C          45.5960   58.5120   31.9500 C.ar    1  UNL1        0.2016
     26 N          46.5780   57.7970   32.4760 N.ar    1  UNL1       -0.2048
     27 C          47.8210   58.2930   32.5910 C.ar    1  UNL1        0.1692
@<TRIPOS>BOND
     1     2     3    1
     2     2     6    1
     3     2     1    1
     4     3     4   ar
     5     3     5   ar
     6     6     7    1
     7     7     8    1
     8     8     9    1
     9     8    10    1
    10    11    12    1
    11    11    13    1
    12    11    10    1
    13    12    17    1
    14    13    14    1
    15    13    15    1
    16    15    16    1
    17    15    17    1
    18    17    18    1
    19    18    19   ar
    20    18    27   ar
    21    19    20   ar
    22    20    21   ar
    23    21    22   ar
    24    21    27   ar
    25    22    23    1
    26    22    24   ar
    27    24    25   ar
    28    25    26   ar
    29    26    27   ar
