REMARK  12 active torsions:
REMARK  status: ('A' for Active; 'I' for Inactive)
REMARK    1  A    between atoms: N_4  and  C_8 
REMARK    2  A    between atoms: C_8  and  C_9 
REMARK    3  A    between atoms: C_9  and  C_10 
REMARK    4  A    between atoms: C_10  and  C_11 
REMARK    5  A    between atoms: C_11  and  N_12 
REMARK    6  A    between atoms: C_14  and  C_17 
REMARK    7  A    between atoms: C_30  and  O_31 
REMARK    8  A    between atoms: C_34  and  O_47 
REMARK    9  A    between atoms: C_42  and  C_43 
REMARK   10  A    between atoms: O_47  and  C_48 
REMARK   11  A    between atoms: C_49  and  O_50 
REMARK   12  A    between atoms: C_51  and  N_52 
ROOT
ATOM      1  C   UNL d   1      15.718   4.179  -2.127  0.00  0.00     0.052 C 
ATOM      2  C   UNL d   1      14.230   4.007  -2.468  0.00  0.00     0.116 C 
ATOM      3  C   UNL d   1      13.468   5.358  -2.350  0.00  0.00     0.137 C 
ATOM      4  N   UNL d   1      12.471   5.261  -3.400  0.00  0.00    -0.319 N 
ATOM      5  C   UNL d   1      12.934   4.357  -4.357  0.00  0.00     0.364 C 
ATOM      6  O   UNL d   1      12.513   4.234  -5.499  0.00  0.00    -0.238 OA
ATOM      7  O   UNL d   1      14.115   3.807  -3.927  0.00  0.00    -0.288 OA
ATOM      8  C   UNL d   1      13.182   6.232  -1.105  0.00  0.00     0.077 C 
ATOM      9  C   UNL d   1      14.472   6.856  -0.551  0.00  0.00     0.020 C 
ATOM     10  C   UNL d   1      12.427   5.655   0.099  0.00  0.00     0.136 C 
ATOM     11  O   UNL d   1      12.976   4.789   0.784  0.00  0.00    -0.297 OA
ATOM     12  C   UNL d   1      11.088   6.285   0.597  0.00  0.00     0.054 C 
ATOM     13  C   UNL d   1      11.030   7.810   0.385  0.00  0.00     0.018 C 
ATOM     14  C   UNL d   1      10.907   6.039   2.132  0.00  0.00     0.052 C 
ATOM     15  C   UNL d   1       9.964   4.917   2.732  0.00  0.00     0.084 C 
ATOM     16  C   UNL d   1       8.829   5.687   3.459  0.00  0.00     0.049 C 
ATOM     17  C   UNL d   1       9.312   3.873   1.720  0.00  0.00     0.169 C 
ATOM     18  C   UNL d   1       9.502   2.353   2.011  0.00  0.00     0.084 C 
ATOM     19  C   UNL d   1      10.944   1.855   1.747  0.00  0.00     0.146 C 
ATOM     20  O   UNL d   1      11.563   1.232   2.608  0.00  0.00    -0.297 OA
ATOM     21  C   UNL d   1      11.527   2.035   0.335  0.00  0.00     0.151 C 
ATOM     22  C   UNL d   1      13.018   1.730   0.247  0.00  0.00     0.270 C 
ATOM     23  O   UNL d   1      13.584   0.876   0.911  0.00  0.00    -0.264 OA
ATOM     24  O   UNL d   1      13.722   2.674  -0.443  0.00  0.00    -0.312 OA
ATOM     25  C   UNL d   1      13.659   2.664  -1.883  0.00  0.00     0.168 C 
ATOM     26  C   UNL d   1      10.711   1.194  -0.635  0.00  0.00     0.029 C 
ATOM     27  C   UNL d   1       9.010   1.893   3.397  0.00  0.00     0.020 C 
ENDROOT
BRANCH   4  28
ATOM     28  C   UNL d   1      11.043   5.516  -3.221  0.00  0.00     0.129 C 
BRANCH  28  29
ATOM     29  C   UNL d   1      10.700   6.928  -3.705  0.00  0.00     0.022 C 
BRANCH  29  30
ATOM     30  C   UNL d   1       9.217   7.210  -3.962  0.00  0.00     0.022 C 
BRANCH  30  31
ATOM     31  C   UNL d   1       8.548   6.235  -4.939  0.00  0.00     0.129 C 
BRANCH  31  32
ATOM     32  N   UNL d   1       8.070   5.011  -4.325  0.00  0.00    -0.349 N 
ATOM     33  C   UNL d   1       8.165   3.764  -4.885  0.00  0.00     0.124 C 
ATOM     34  C   UNL d   1       7.890   2.909  -3.840  0.00  0.00     0.085 C 
ATOM     35  N   UNL d   1       7.573   3.599  -2.699  0.00  0.00    -0.242 NA
ATOM     36  C   UNL d   1       7.600   4.860  -3.053  0.00  0.00     0.210 C 
BRANCH  34  37
ATOM     37  C   UNL d   1       8.019   1.467  -3.894  0.00  0.00     0.012 A 
ATOM     38  C   UNL d   1       9.293   0.908  -4.028  0.00  0.00     0.017 A 
ATOM     39  C   UNL d   1       9.536  -0.398  -3.612  0.00  0.00     0.020 A 
ATOM     40  C   UNL d   1       8.501  -1.087  -3.012  0.00  0.00     0.116 A 
ATOM     41  N   UNL d   1       7.257  -0.590  -2.845  0.00  0.00    -0.272 NA
ATOM     42  C   UNL d   1       7.064   0.687  -3.251  0.00  0.00     0.130 A 
ENDBRANCH  34  37
ENDBRANCH  31  32
ENDBRANCH  30  31
ENDBRANCH  29  30
ENDBRANCH  28  29
ENDBRANCH   4  28
BRANCH  25  43
ATOM     43  C   UNL d   1      14.560   1.469  -2.359  0.00  0.00     0.031 C 
ATOM     44  C   UNL d   1      13.868   0.123  -2.487  0.00  0.00     0.007 C 
ENDBRANCH  25  43
BRANCH  15  45
ATOM     45  O   UNL d   1      10.569   4.230   3.852  0.00  0.00    -0.383 OA
ATOM     46  C   UNL d   1      11.971   4.066   3.951  0.00  0.00     0.202 C 
ENDBRANCH  15  45
BRANCH  17  47
ATOM     47  O   UNL d   1       7.968   4.259   1.284  0.00  0.00    -0.349 OA
BRANCH  47  48
ATOM     48  C   UNL d   1       6.794   3.537   1.713  0.00  0.00     0.291 C 
ATOM     49  C   UNL d   1       5.787   3.438   0.540  0.00  0.00     0.206 C 
ATOM     50  C   UNL d   1       4.370   3.032   1.054  0.00  0.00     0.257 C 
ATOM     51  C   UNL d   1       3.936   4.105   2.093  0.00  0.00     0.070 C 
ATOM     52  C   UNL d   1       5.089   4.941   2.651  0.00  0.00     0.122 C 
ATOM     53  O   UNL d   1       6.213   4.104   2.888  0.00  0.00    -0.354 OA
ATOM     54  C   UNL d   1       4.705   5.582   3.979  0.00  0.00     0.040 C 
BRANCH  49  55
ATOM     55  O   UNL d   1       6.332   2.490  -0.374  0.00  0.00    -0.388 OA
ATOM     56  H   UNL d   1       6.166   1.601  -0.019  0.00  0.00     0.210 HD
ENDBRANCH  49  55
BRANCH  50  57
ATOM     57  N   UNL d   1       3.303   2.922   0.019  0.00  0.00     0.087 N 
ATOM     58  C   UNL d   1       3.642   2.066  -1.117  0.00  0.00     0.310 C 
ATOM     59  C   UNL d   1       2.015   2.480   0.579  0.00  0.00     0.310 C 
ENDBRANCH  50  57
ENDBRANCH  47  48
ENDBRANCH  17  47
TORSDOF 12
