@<TRIPOS>MOLECULE
1P9X_TEL_0_2881
 123 127 0 0 0
SMALL
GASTEIGER

@<TRIPOS>ATOM
      1 C          15.7183    4.1795   -2.1266 C.3     1  UNL1       -0.0194
      2 C          14.2296    4.0070   -2.4677 C.3     1  UNL1        0.1678
      3 C          13.4677    5.3581   -2.3505 C.3     1  UNL1        0.0814
      4 H          14.1598    6.0377   -2.8824 H       1  UNL1        0.0549
      5 N          12.4708    5.2614   -3.3996 N.am    1  UNL1       -0.2598
      6 C          12.9335    4.3574   -4.3569 C.2     1  UNL1        0.4039
      7 O          12.5131    4.2342   -5.4994 O.2     1  UNL1       -0.2262
      8 O          14.1152    3.8070   -3.9271 O.3     1  UNL1       -0.4383
      9 C          11.0431    5.5155   -3.2210 C.3     1  UNL1        0.0183
     10 C          10.7001    6.9276   -3.7050 C.3     1  UNL1       -0.0354
     11 C           9.2174    7.2102   -3.9625 C.3     1  UNL1       -0.0335
     12 C           8.5476    6.2352   -4.9386 C.3     1  UNL1        0.0242
     13 N           8.0701    5.0114   -4.3246 N.ar    1  UNL1       -0.3362
     14 C           8.1649    3.7642   -4.8852 C.ar    1  UNL1        0.0319
     15 C           7.8901    2.9094   -3.8401 C.ar    1  UNL1        0.0902
     16 N           7.5730    3.5985   -2.6989 N.ar    1  UNL1       -0.2357
     17 C           7.6000    4.8597   -3.0531 C.ar    1  UNL1        0.0966
     18 C           8.0186    1.4668   -3.8938 C.ar    1  UNL1        0.0199
     19 C           9.2926    0.9080   -4.0278 C.ar    1  UNL1       -0.0496
     20 C           9.5364   -0.3978   -3.6121 C.ar    1  UNL1       -0.0430
     21 C           8.5012   -1.0873   -3.0120 C.ar    1  UNL1        0.0276
     22 N           7.2574   -0.5901   -2.8454 N.ar    1  UNL1       -0.2626
     23 C           7.0636    0.6872   -3.2513 C.ar    1  UNL1        0.0368
     24 C          13.1819    6.2324   -1.1053 C.3     1  UNL1        0.0375
     25 H          12.6006    7.0733   -1.4773 H       1  UNL1        0.0394
     26 C          14.4721    6.8562   -0.5510 C.3     1  UNL1       -0.0538
     27 C          12.4269    5.6548    0.0994 C.2     1  UNL1        0.1409
     28 O          12.9756    4.7886    0.7843 O.2     1  UNL1       -0.2968
     29 C          11.0884    6.2850    0.5971 C.3     1  UNL1        0.0177
     30 H          10.2780    5.8420    0.0125 H       1  UNL1        0.0376
     31 C          11.0303    7.8099    0.3846 C.3     1  UNL1       -0.0556
     32 C          10.9067    6.0392    2.1322 C.3     1  UNL1       -0.0123
     33 C           9.9642    4.9168    2.7320 C.3     1  UNL1        0.0937
     34 O          10.5691    4.2304    3.8524 O.3     1  UNL1       -0.3742
     35 C          11.9711    4.0661    3.9508 C.3     1  UNL1        0.0373
     36 C           8.8294    5.6871    3.4595 C.3     1  UNL1       -0.0333
     37 C           9.3115    3.8732    1.7197 C.3     1  UNL1        0.0996
     38 H           9.8509    4.0237    0.7902 H       1  UNL1        0.0632
     39 C           9.5019    2.3525    2.0113 C.3     1  UNL1        0.0445
     40 H           8.9015    1.8013    1.2703 H       1  UNL1        0.0401
     41 C          10.9442    1.8553    1.7467 C.2     1  UNL1        0.1521
     42 O          11.5628    1.2322    2.6080 O.2     1  UNL1       -0.2962
     43 C          11.5271    2.0347    0.3347 C.3     1  UNL1        0.1120
     44 H          11.4110    3.0799    0.0635 H       1  UNL1        0.0489
     45 C          13.0180    1.7300    0.2470 C.2     1  UNL1        0.3176
     46 O          13.5844    0.8759    0.9113 O.2     1  UNL1       -0.2501
     47 O          13.7221    2.6736   -0.4427 O.3     1  UNL1       -0.4568
     48 C          13.6588    2.6641   -1.8826 C.3     1  UNL1        0.1439
     49 H          12.6231    2.5350   -2.2231 H       1  UNL1        0.0775
     50 C          14.5600    1.4692   -2.3594 C.3     1  UNL1       -0.0146
     51 C          13.8680    0.1226   -2.4867 C.3     1  UNL1       -0.0618
     52 C          10.7112    1.1941   -0.6353 C.3     1  UNL1       -0.0454
     53 C           9.0100    1.8928    3.3968 C.3     1  UNL1       -0.0532
     54 O           7.9684    4.2594    1.2838 O.3     1  UNL1       -0.3420
     55 C           6.7943    3.5371    1.7131 C.3     1  UNL1        0.1871
     56 H           7.0504    2.5142    1.9782 H       1  UNL1        0.0937
     57 C           5.7871    3.4376    0.5397 C.3     1  UNL1        0.1214
     58 H           5.7370    4.3968    0.0095 H       1  UNL1        0.0660
     59 O           6.3317    2.4900   -0.3739 O.3     1  UNL1       -0.3852
     60 C           4.3699    3.0317    1.0539 C.3     1  UNL1        0.0429
     61 H           4.4668    2.0602    1.5648 H       1  UNL1        0.0490
     62 N           3.3033    2.9223    0.0188 N.3     1  UNL1       -0.3027
     63 C           3.6418    2.0661   -1.1174 C.3     1  UNL1       -0.0127
     64 C           2.0146    2.4804    0.5787 C.3     1  UNL1       -0.0127
     65 C           3.9355    4.1049    2.0934 C.3     1  UNL1       -0.0085
     66 C           5.0886    4.9409    2.6512 C.3     1  UNL1        0.0605
     67 H           5.3628    5.7354    1.9460 H       1  UNL1        0.0595
     68 O           6.2129    4.1036    2.8877 O.3     1  UNL1       -0.3457
     69 C           4.7048    5.5820    3.9787 C.3     1  UNL1       -0.0385
     70 H          16.3466    3.5553   -2.7672 H       1  UNL1        0.0270
     71 H          15.9273    3.9014   -1.0886 H       1  UNL1        0.0270
     72 H          16.0705    5.2067   -2.2679 H       1  UNL1        0.0270
     73 H          10.7654    5.3543   -2.1780 H       1  UNL1        0.0466
     74 H          10.5325    4.7493   -3.8104 H       1  UNL1        0.0466
     75 H          11.0378    7.6484   -2.9517 H       1  UNL1        0.0281
     76 H          11.2583    7.1551   -4.6190 H       1  UNL1        0.0281
     77 H           8.6825    7.2840   -3.0107 H       1  UNL1        0.0283
     78 H           9.1394    8.2185   -4.3939 H       1  UNL1        0.0283
     79 H           7.6908    6.7069   -5.4329 H       1  UNL1        0.0492
     80 H           9.2631    5.9576   -5.7232 H       1  UNL1        0.0492
     81 H           8.4957    3.6034   -5.8990 H       1  UNL1        0.0831
     82 H           7.4032    5.6873   -2.3853 H       1  UNL1        0.1029
     83 H          10.0671    1.4384   -4.5831 H       1  UNL1        0.0625
     84 H          10.5076   -0.8551   -3.7598 H       1  UNL1        0.0633
     85 H           8.6345   -2.1113   -2.6794 H       1  UNL1        0.0829
     86 H           6.0236    1.0175   -3.2108 H       1  UNL1        0.0836
     87 H          15.0752    7.3015   -1.3472 H       1  UNL1        0.0237
     88 H          15.0927    6.1179   -0.0343 H       1  UNL1        0.0237
     89 H          14.2411    7.6597    0.1564 H       1  UNL1        0.0237
     90 H          11.1177    8.1150   -0.6609 H       1  UNL1        0.0236
     91 H          10.0572    8.1954    0.7162 H       1  UNL1        0.0236
     92 H          11.8078    8.3228    0.9654 H       1  UNL1        0.0236
     93 H          11.9088    5.9891    2.5617 H       1  UNL1        0.0300
     94 H          10.5447    6.9893    2.5509 H       1  UNL1        0.0300
     95 H          12.1663    3.2985    4.7072 H       1  UNL1        0.0524
     96 H          12.4154    3.7373    3.0116 H       1  UNL1        0.0524
     97 H          12.4524    4.9805    4.3075 H       1  UNL1        0.0524
     98 H           8.2055    6.2523    2.7580 H       1  UNL1        0.0258
     99 H           8.1950    5.0055    4.0314 H       1  UNL1        0.0258
    100 H           9.2349    6.3979    4.1904 H       1  UNL1        0.0258
    101 H          15.0105    1.6812   -3.3371 H       1  UNL1        0.0299
    102 H          15.4069    1.3585   -1.6691 H       1  UNL1        0.0299
    103 H          14.3071   -0.4500   -3.3124 H       1  UNL1        0.0231
    104 H          13.9931   -0.4709   -1.5768 H       1  UNL1        0.0231
    105 H          12.8081    0.2175   -2.7097 H       1  UNL1        0.0231
    106 H          10.2545    0.3234   -0.1521 H       1  UNL1        0.0242
    107 H           9.9153    1.8016   -1.0747 H       1  UNL1        0.0242
    108 H          11.3141    0.8191   -1.4563 H       1  UNL1        0.0242
    109 H           8.4585    0.9467    3.2955 H       1  UNL1        0.0237
    110 H           8.3335    2.6134    3.8614 H       1  UNL1        0.0237
    111 H           9.8167    1.7137    4.1092 H       1  UNL1        0.0237
    112 H           6.1661    1.6014   -0.0190 H       1  UNL1        0.2101
    113 H           4.3914    2.5449   -1.7539 H       1  UNL1        0.0391
    114 H           4.0072    1.0823   -0.7927 H       1  UNL1        0.0391
    115 H           2.7731    1.9076   -1.7679 H       1  UNL1        0.0391
    116 H           1.2495    3.2254    0.3375 H       1  UNL1        0.0391
    117 H           1.6729    1.5201    0.1729 H       1  UNL1        0.0391
    118 H           2.0186    2.3596    1.6669 H       1  UNL1        0.0391
    119 H           3.4332    3.5842    2.9203 H       1  UNL1        0.0306
    120 H           3.1762    4.7818    1.6785 H       1  UNL1        0.0306
    121 H           3.6959    6.0052    3.9445 H       1  UNL1        0.0255
    122 H           5.3887    6.3949    4.2223 H       1  UNL1        0.0255
    123 H           4.7330    4.8600    4.7988 H       1  UNL1        0.0255
@<TRIPOS>BOND
     1     1     2    1
     2     1    70    1
     3     1    71    1
     4     1    72    1
     5     2     3    1
     6     2     8    1
     7     2    48    1
     8     3     4    1
     9     3     5    1
    10     3    24    1
    11     5     6   am
    12     5     9    1
    13     6     7    2
    14     6     8    1
    15     9    10    1
    16     9    73    1
    17     9    74    1
    18    10    11    1
    19    10    75    1
    20    10    76    1
    21    11    12    1
    22    11    77    1
    23    11    78    1
    24    12    13    1
    25    12    79    1
    26    12    80    1
    27    13    14   ar
    28    13    17   ar
    29    14    15   ar
    30    14    81    1
    31    15    16   ar
    32    15    18    1
    33    16    17   ar
    34    17    82    1
    35    18    19   ar
    36    18    23   ar
    37    19    20   ar
    38    19    83    1
    39    20    21   ar
    40    20    84    1
    41    21    22   ar
    42    21    85    1
    43    22    23   ar
    44    23    86    1
    45    24    27    1
    46    24    26    1
    47    24    25    1
    48    26    87    1
    49    26    88    1
    50    26    89    1
    51    27    28    2
    52    27    29    1
    53    29    30    1
    54    29    31    1
    55    29    32    1
    56    31    90    1
    57    31    91    1
    58    31    92    1
    59    32    33    1
    60    32    93    1
    61    32    94    1
    62    33    34    1
    63    33    36    1
    64    33    37    1
    65    34    35    1
    66    35    95    1
    67    35    96    1
    68    35    97    1
    69    36    98    1
    70    36    99    1
    71    36   100    1
    72    37    38    1
    73    37    39    1
    74    37    54    1
    75    39    41    1
    76    39    53    1
    77    39    40    1
    78    41    42    2
    79    41    43    1
    80    43    44    1
    81    43    45    1
    82    43    52    1
    83    45    46    2
    84    45    47    1
    85    47    48    1
    86    48    49    1
    87    48    50    1
    88    50    51    1
    89    50   101    1
    90    50   102    1
    91    51   103    1
    92    51   104    1
    93    51   105    1
    94    52   106    1
    95    52   107    1
    96    52   108    1
    97    53   109    1
    98    53   110    1
    99    53   111    1
   100    54    55    1
   101    55    56    1
   102    55    57    1
   103    55    68    1
   104    57    60    1
   105    57    59    1
   106    57    58    1
   107    59   112    1
   108    60    65    1
   109    60    62    1
   110    60    61    1
   111    62    63    1
   112    62    64    1
   113    63   113    1
   114    63   114    1
   115    63   115    1
   116    64   116    1
   117    64   117    1
   118    64   118    1
   119    65    66    1
   120    65   119    1
   121    65   120    1
   122    66    68    1
   123    66    69    1
   124    66    67    1
   125    69   121    1
   126    69   122    1
   127    69   123    1
