@<TRIPOS>MOLECULE
ligand.pdb
 10 9 0 0 0
SMALL
GASTEIGER

@<TRIPOS>ATOM
      1 O1         32.7820   17.8770   23.1060 O.co2   1  <1>        -0.2440
      2 C1         33.1240   17.0070   22.2800 C.2     1  <1>         0.3844
      3 O2         34.3390   16.8510   22.0010 O.co2   1  <1>        -0.2440
      4 C2         32.0860   16.6220   21.2600 C.3     1  <1>         0.2236
      5 N1         32.6860   15.8540   20.1850 N.3     1  <1>        -0.1181
      6 C3         30.9790   15.8040   21.9110 C.3     1  <1>         0.1727
      7 O3         29.9410   15.5940   20.9570 O.3     1  <1>        -0.3500
      8 C4         28.7600   15.2330   21.6730 C.3     1  <1>         0.1627
      9 C5         27.5760   15.3030   20.7110 C.3     1  <1>         0.1413
     10 N2         27.5970   14.1630   19.8110 N.3     1  <1>        -0.1286
@<TRIPOS>BOND
     1     1     2   ar
     2     2     3   ar
     3     2     4    1
     4     4     5    1
     5     4     6    1
     6     6     7    1
     7     7     8    1
     8     8     9    1
     9     9    10    1
