REMARK  16 active torsions:
REMARK  status: ('A' for Active; 'I' for Inactive)
REMARK    1  A    between atoms: N_2  and  C_1 
REMARK       I    between atoms: C_3  and  N_2 
REMARK       I    between atoms: N_5  and  C_3 
REMARK    2  A    between atoms: O_7  and  C_6 
REMARK    3  A    between atoms: N_9  and  C_8 
REMARK       I    between atoms: C_10  and  N_9 
REMARK       I    between atoms: N_12  and  C_10 
REMARK    4  A    between atoms: O_14  and  C_13 
REMARK    5  A    between atoms: C_15  and  O_14 
REMARK    6  A    between atoms: O_24  and  C_16 
REMARK    7  A    between atoms: O_18  and  C_17 
REMARK    8  A    between atoms: C_19  and  C_17 
REMARK    9  A    between atoms: C_25  and  O_24 
REMARK   10  A    between atoms: N_27  and  C_26 
REMARK   11  A    between atoms: O_30  and  C_29 
REMARK   12  A    between atoms: O_32  and  C_31 
REMARK   13  A    between atoms: C_35  and  C_33 
REMARK   14  A    between atoms: O_36  and  C_35 
REMARK   15  A    between atoms: O_38  and  C_37 
REMARK   16  A    between atoms: O_40  and  C_39 
ROOT
ATOM      1  C   UNL d   1      -1.771  -0.716   0.363  0.00  0.00     0.146 C 
ATOM      2  C   UNL d   1      -2.302  -1.930  -0.410  0.00  0.00     0.168 C 
ATOM      3  C   UNL d   1      -1.347  -3.106  -0.083  0.00  0.00     0.146 C 
ATOM      4  C   UNL d   1      -1.478  -3.555   1.393  0.00  0.00     0.181 C 
ATOM      5  C   UNL d   1      -1.933  -2.423   2.364  0.00  0.00     0.180 C 
ATOM      6  C   UNL d   1      -1.769  -0.952   1.889  0.00  0.00     0.174 C 
ENDROOT
BRANCH   4   7
ATOM      7  O   UNL d   1      -0.300  -4.318   1.787  0.00  0.00    -0.348 OA
BRANCH   7   8
ATOM      8  C   UNL d   1       0.714  -3.617   2.520  0.00  0.00     0.293 C 
ATOM      9  C   UNL d   1       0.965  -4.139   4.043  0.00  0.00     0.223 C 
ATOM     10  C   UNL d   1       2.103  -3.124   4.190  0.00  0.00     0.166 C 
ATOM     11  C   UNL d   1       2.970  -3.562   3.012  0.00  0.00     0.165 C 
ATOM     12  C   UNL d   1       4.122  -2.652   2.625  0.00  0.00     0.043 C 
ATOM     13  O   UNL d   1       2.034  -3.738   1.924  0.00  0.00    -0.350 OA
BRANCH   9  14
ATOM     14  O   UNL d   1       0.466  -4.180   5.407  0.00  0.00    -0.345 OA
BRANCH  14  15
ATOM     15  C   UNL d   1       0.727  -5.525   5.937  0.00  0.00     0.297 C 
ATOM     16  C   UNL d   1       1.510  -5.495   7.373  0.00  0.00     0.305 C 
ATOM     17  C   UNL d   1       1.005  -6.501   8.501  0.00  0.00     0.187 C 
ATOM     18  C   UNL d   1      -0.114  -7.328   7.865  0.00  0.00     0.180 C 
ATOM     19  C   UNL d   1      -1.109  -7.143   6.708  0.00  0.00     0.179 C 
ATOM     20  O   UNL d   1      -0.410  -6.409   5.651  0.00  0.00    -0.349 OA
BRANCH  16  21
ATOM     21  N   UNL d   1       1.565  -4.143   7.951  0.00  0.00     0.091 N 
ATOM     22  C   UNL d   1       2.717  -3.964   8.835  0.00  0.00     0.307 C 
ATOM     23  H   UNL d   1       0.694  -3.948   8.446  0.00  0.00     0.316 HD
ENDBRANCH  16  21
BRANCH  17  24
ATOM     24  O   UNL d   1       2.078  -7.299   8.994  0.00  0.00    -0.391 OA
ATOM     25  H   UNL d   1       1.757  -7.717   9.810  0.00  0.00     0.210 HD
ENDBRANCH  17  24
BRANCH  18  26
ATOM     26  O   UNL d   1       0.780  -8.220   7.162  0.00  0.00    -0.390 OA
ATOM     27  H   UNL d   1       1.039  -7.850   6.305  0.00  0.00     0.210 HD
ENDBRANCH  18  26
BRANCH  19  28
ATOM     28  C   UNL d   1      -1.656  -8.463   6.131  0.00  0.00     0.198 C 
BRANCH  28  29
ATOM     29  O   UNL d   1      -1.732  -9.479   7.128  0.00  0.00    -0.398 OA
ATOM     30  H   UNL d   1      -0.850  -9.884   7.199  0.00  0.00     0.209 HD
ENDBRANCH  28  29
ENDBRANCH  19  28
ENDBRANCH  14  15
ENDBRANCH   9  14
BRANCH  10  31
ATOM     31  O   UNL d   1       1.620  -1.776   4.105  0.00  0.00    -0.377 OA
ATOM     32  H   UNL d   1       2.094  -1.325   3.390  0.00  0.00     0.211 HD
ENDBRANCH  10  31
BRANCH  10  33
ATOM     33  C   UNL d   1       2.895  -3.025   5.472  0.00  0.00     0.274 C 
ATOM     34  O   UNL d   1       2.766  -2.090   6.271  0.00  0.00    -0.303 OA
ENDBRANCH  10  33
ENDBRANCH   7   8
ENDBRANCH   4   7
BRANCH   3  35
ATOM     35  N   UNL d   1      -1.594  -4.256  -0.966  0.00  0.00    -0.356 N 
ATOM     36  C   UNL d   1      -0.640  -4.671  -1.884  0.00  0.00     0.166 C 
ATOM     37  N   UNL d   1       0.648  -4.467  -1.746  0.00  0.00    -0.274 NA
ATOM     38  N   UNL d   1      -1.070  -5.802  -2.585  0.00  0.00    -0.273 NA
ATOM     39  H   UNL d   1       1.077  -4.581  -2.679  0.00  0.00     0.189 HD
ATOM     40  H   UNL d   1      -0.880  -6.681  -2.107  0.00  0.00     0.127 HD
ATOM     41  H   UNL d   1      -0.708  -5.856  -3.536  0.00  0.00     0.127 HD
ATOM     42  H   UNL d   1      -2.548  -4.285  -1.324  0.00  0.00     0.162 HD
ENDBRANCH   3  35
BRANCH   5  43
ATOM     43  O   UNL d   1      -3.333  -2.637   2.635  0.00  0.00    -0.390 OA
ATOM     44  H   UNL d   1      -3.850  -2.304   1.885  0.00  0.00     0.210 HD
ENDBRANCH   5  43
BRANCH   2  45
ATOM     45  O   UNL d   1      -2.268  -1.653  -1.811  0.00  0.00    -0.391 OA
ATOM     46  H   UNL d   1      -3.178  -1.751  -2.146  0.00  0.00     0.210 HD
ENDBRANCH   2  45
BRANCH   6  47
ATOM     47  O   UNL d   1      -0.544  -0.397   2.384  0.00  0.00    -0.391 OA
ATOM     48  H   UNL d   1      -0.537  -0.489   3.352  0.00  0.00     0.210 HD
ENDBRANCH   6  47
BRANCH   1  49
ATOM     49  N   UNL d   1      -2.408   0.588   0.092  0.00  0.00    -0.356 N 
ATOM     50  C   UNL d   1      -3.681   0.800  -0.459  0.00  0.00     0.166 C 
ATOM     51  N   UNL d   1      -3.909   1.913  -1.120  0.00  0.00    -0.274 NA
ATOM     52  N   UNL d   1      -4.705   0.232   0.276  0.00  0.00    -0.273 NA
ATOM     53  H   UNL d   1      -3.112   2.066  -1.764  0.00  0.00     0.189 HD
ATOM     54  H   UNL d   1      -5.203   0.892   0.873  0.00  0.00     0.127 HD
ATOM     55  H   UNL d   1      -4.436  -0.570   0.838  0.00  0.00     0.127 HD
ATOM     56  H   UNL d   1      -1.723   1.277  -0.218  0.00  0.00     0.162 HD
ENDBRANCH   1  49
TORSDOF 16
