@<TRIPOS>MOLECULE
1NTA_SRY_A_26
 79 81 0 0 0
SMALL
GASTEIGER

@<TRIPOS>ATOM
      1 C          -1.7713   -0.7159    0.3633 C.3     1  UNL1        0.1329
      2 H          -0.7260   -0.5816    0.0387 H       1  UNL1        0.0746
      3 N          -2.4083    0.5881    0.0918 N.pl3   1  UNL1       -0.2682
      4 C          -3.6807    0.7996   -0.4591 C.cat   1  UNL1        0.3766
      5 N          -3.9087    1.9133   -1.1202 N.pl3   1  UNL1       -0.1298
      6 N          -4.7050    0.2322    0.2762 N.pl3   1  UNL1       -0.2893
      7 C          -2.3021   -1.9303   -0.4103 C.3     1  UNL1        0.1266
      8 H          -3.3320   -2.1904   -0.1466 H       1  UNL1        0.0665
      9 O          -2.2685   -1.6534   -1.8108 O.3     1  UNL1       -0.3847
     10 C          -1.3470   -3.1056   -0.0827 C.3     1  UNL1        0.1333
     11 H          -0.3173   -2.7581   -0.2346 H       1  UNL1        0.0746
     12 N          -1.5937   -4.2559   -0.9657 N.pl3   1  UNL1       -0.2682
     13 C          -0.6396   -4.6711   -1.8841 C.cat   1  UNL1        0.3766
     14 N           0.6477   -4.4667   -1.7455 N.pl3   1  UNL1       -0.1298
     15 N          -1.0701   -5.8024   -2.5850 N.pl3   1  UNL1       -0.2893
     16 C          -1.4776   -3.5553    1.3931 C.3     1  UNL1        0.1258
     17 H          -2.2656   -4.3231    1.4261 H       1  UNL1        0.0659
     18 O          -0.3001   -4.3180    1.7873 O.3     1  UNL1       -0.3392
     19 C           0.7141   -3.6171    2.5196 C.3     1  UNL1        0.1895
     20 H           0.4866   -2.5576    2.4455 H       1  UNL1        0.0938
     21 C           0.9645   -4.1387    4.0428 C.3     1  UNL1        0.1499
     22 H          -0.1024   -4.2605    3.8906 H       1  UNL1        0.0682
     23 C           2.1033   -3.1241    4.1899 C.3     1  UNL1        0.1770
     24 O           1.6196   -1.7760    4.1053 O.3     1  UNL1       -0.3763
     25 C           2.8952   -3.0247    5.4723 C.2     1  UNL1        0.1570
     26 O           2.7660   -2.0901    6.2708 O.2     1  UNL1       -0.2978
     27 C           2.9703   -3.5618    3.0122 C.3     1  UNL1        0.0969
     28 H           3.3804   -4.5591    3.2302 H       1  UNL1        0.0628
     29 C           4.1225   -2.6518    2.6247 C.3     1  UNL1       -0.0354
     30 O           2.0339   -3.7383    1.9242 O.3     1  UNL1       -0.3423
     31 O           0.4662   -4.1796    5.4072 O.3     1  UNL1       -0.3380
     32 C           0.7274   -5.5248    5.9367 C.3     1  UNL1        0.1780
     33 H           1.5037   -5.9457    5.2777 H       1  UNL1        0.0927
     34 C           1.5104   -5.4949    7.3735 C.3     1  UNL1        0.0876
     35 H           2.5441   -5.7678    7.1090 H       1  UNL1        0.0537
     36 N           1.5647   -4.1428    7.9508 N.3     1  UNL1       -0.3099
     37 C           2.7175   -3.9637    8.8345 C.3     1  UNL1       -0.0153
     38 C           1.0048   -6.5006    8.5013 C.3     1  UNL1        0.1035
     39 H           0.6180   -5.9885    9.3990 H       1  UNL1        0.0637
     40 O           2.0781   -7.2988    8.9937 O.3     1  UNL1       -0.3874
     41 C          -0.1141   -7.3277    7.8647 C.3     1  UNL1        0.1109
     42 H          -0.3841   -6.2403    7.7952 H       1  UNL1        0.0646
     43 O           0.7801   -8.2202    7.1622 O.3     1  UNL1       -0.3865
     44 C          -1.1090   -7.1431    6.7081 C.3     1  UNL1        0.1129
     45 H          -1.9989   -6.5482    6.9783 H       1  UNL1        0.0647
     46 O          -0.4102   -6.4088    5.6505 O.3     1  UNL1       -0.3415
     47 C          -1.6556   -8.4631    6.1315 C.3     1  UNL1        0.0730
     48 O          -1.7322   -9.4795    7.1285 O.3     1  UNL1       -0.3924
     49 C          -1.9329   -2.4229    2.3641 C.3     1  UNL1        0.1138
     50 H          -1.4669   -2.5407    3.3457 H       1  UNL1        0.0647
     51 O          -3.3326   -2.6366    2.6347 O.3     1  UNL1       -0.3864
     52 C          -1.7687   -0.9518    1.8888 C.3     1  UNL1        0.1193
     53 H          -2.5657   -0.3541    2.3486 H       1  UNL1        0.0656
     54 O          -0.5438   -0.3965    2.3843 O.3     1  UNL1       -0.3856
     55 H          -1.7227    1.2774   -0.2182 H       1  UNL1        0.2583
     56 H          -3.1123    2.0655   -1.7645 H       1  UNL1        0.3062
     57 H          -5.2030    0.8918    0.8731 H       1  UNL1        0.2546
     58 H          -4.4361   -0.5695    0.8380 H       1  UNL1        0.2546
     59 H          -3.1782   -1.7513   -2.1461 H       1  UNL1        0.2101
     60 H          -2.5476   -4.2848   -1.3243 H       1  UNL1        0.2583
     61 H           1.0765   -4.5808   -2.6789 H       1  UNL1        0.3062
     62 H          -0.8796   -6.6813   -2.1072 H       1  UNL1        0.2546
     63 H          -0.7079   -5.8559   -3.5363 H       1  UNL1        0.2546
     64 H           2.0935   -1.3250    3.3896 H       1  UNL1        0.2109
     65 H           3.6505   -3.8007    5.6578 H       1  UNL1        0.1059
     66 H           4.8322   -3.2009    1.9975 H       1  UNL1        0.0256
     67 H           4.6729   -2.3182    3.5118 H       1  UNL1        0.0256
     68 H           3.7984   -1.7658    2.0731 H       1  UNL1        0.0256
     69 H           0.6943   -3.9476    8.4462 H       1  UNL1        0.1221
     70 H           3.3848   -4.8328    8.8793 H       1  UNL1        0.0388
     71 H           2.3753   -3.7525    9.8498 H       1  UNL1        0.0388
     72 H           3.3358   -3.1182    8.5136 H       1  UNL1        0.0388
     73 H           1.7570   -7.7169    9.8101 H       1  UNL1        0.2100
     74 H           1.0391   -7.8499    6.3050 H       1  UNL1        0.2100
     75 H          -2.6721   -8.3157    5.7533 H       1  UNL1        0.0584
     76 H          -1.0270   -8.8262    5.3127 H       1  UNL1        0.0584
     77 H          -0.8503   -9.8839    7.1987 H       1  UNL1        0.2095
     78 H          -3.8500   -2.3039    1.8846 H       1  UNL1        0.2100
     79 H          -0.5371   -0.4893    3.3516 H       1  UNL1        0.2100
@<TRIPOS>BOND
     1     1     2    1
     2     3     1    1
     3     4     3    1
     4     5     4    2
     5     6     4    1
     6     7     1    1
     7     7     8    1
     8     9     7    1
     9    10     7    1
    10    10    11    1
    11    12    10    1
    12    13    12    1
    13    14    13    2
    14    15    13    1
    15    16    10    1
    16    16    17    1
    17    18    16    1
    18    19    18    1
    19    19    20    1
    20    21    19    1
    21    21    22    1
    22    23    21    1
    23    24    23    1
    24    25    23    1
    25    26    25    2
    26    27    23    1
    27    27    28    1
    28    29    27    1
    29    30    27    1
    30    30    19    1
    31    31    21    1
    32    32    31    1
    33    32    33    1
    34    34    32    1
    35    34    35    1
    36    36    34    1
    37    37    36    1
    38    38    34    1
    39    38    39    1
    40    40    38    1
    41    41    38    1
    42    41    42    1
    43    43    41    1
    44    44    41    1
    45    44    45    1
    46    46    44    1
    47    46    32    1
    48    47    44    1
    49    48    47    1
    50    49    16    1
    51    49    50    1
    52    51    49    1
    53    52    49    1
    54    52    53    1
    55    52     1    1
    56    54    52    1
    57     3    55    1
    58     5    56    1
    59     6    57    1
    60     6    58    1
    61     9    59    1
    62    12    60    1
    63    14    61    1
    64    15    62    1
    65    15    63    1
    66    24    64    1
    67    25    65    1
    68    29    66    1
    69    29    67    1
    70    29    68    1
    71    36    69    1
    72    37    70    1
    73    37    71    1
    74    37    72    1
    75    40    73    1
    76    43    74    1
    77    47    75    1
    78    47    76    1
    79    48    77    1
    80    51    78    1
    81    54    79    1
