ligand.pdb
  1228              3D

 51 53  0  0  0  0  0  0  0  0999 V2000
   -5.1344   -6.2468    0.8386 N   0  0  0  0  0  0  0  0  0  0  0  0
   -4.1631   -5.7242    1.7962 C   0  0  0  0  0  0  0  0  0  0  0  0
   -3.6117   -6.5785    2.2043 H   0  0  0  0  0  0  0  0  0  0  0  0
   -4.8899   -5.0674    2.9505 C   0  0  0  0  0  0  0  0  0  0  0  0
   -6.0738   -4.7644    2.9778 O   0  0  0  0  0  0  0  0  0  0  0  0
   -4.0450   -4.8698    3.9949 O   0  0  0  0  0  0  0  0  0  0  0  0
   -3.1629   -4.7829    1.1190 C   0  0  0  0  0  0  0  0  0  0  0  0
   -3.7410   -3.5284    0.4666 C   0  0  0  0  0  0  0  0  0  0  0  0
   -2.8123   -2.0616    0.9787 S   0  0  0  0  0  0  0  0  0  0  0  0
   -3.0218   -1.9031    2.2972 H   0  0  0  0  0  0  0  0  0  0  0  0
   -3.4667   -0.5952    0.1653 C   0  0  0  0  0  0  0  0  0  0  0  0
   -1.0136   -2.1570    0.7478 C   0  0  0  0  0  0  0  0  0  0  0  0
   -0.5389   -3.1038   -0.3491 C   0  0  0  0  0  0  0  0  0  0  0  0
   -1.0026   -4.0797   -0.2425 H   0  0  0  0  0  0  0  0  0  0  0  0
    0.8822   -3.3052   -0.1390 O   0  0  0  0  0  0  0  0  0  0  0  0
    1.6244   -2.5201   -1.0986 C   0  0  0  0  0  0  0  0  0  0  0  0
    2.1838   -3.2129   -1.7521 H   0  0  0  0  0  0  0  0  0  0  0  0
    0.5889   -1.7254   -1.8992 C   0  0  0  0  0  0  0  0  0  0  0  0
    0.3644   -0.7365   -1.4707 H   0  0  0  0  0  0  0  0  0  0  0  0
   -0.6223   -2.6226   -1.7852 C   0  0  0  0  0  0  0  0  0  0  0  0
   -0.5370   -3.4744   -2.4687 H   0  0  0  0  0  0  0  0  0  0  0  0
   -1.8309   -1.9588   -2.0696 O   0  0  0  0  0  0  0  0  0  0  0  0
    1.0020   -1.5410   -3.2443 O   0  0  0  0  0  0  0  0  0  0  0  0
    2.6116   -1.7358   -0.3550 N   0  0  0  0  0  0  0  0  0  0  0  0
    2.2729   -0.6815    0.4731 C   0  0  0  0  0  0  0  0  0  0  0  0
    3.1925   -0.4508    1.3840 N   0  0  0  0  0  0  0  0  0  0  0  0
    4.0535   -1.5142    1.2984 C   0  0  0  0  0  0  0  0  0  0  0  0
    5.1732   -1.8641    2.0712 C   0  0  0  0  0  0  0  0  0  0  0  0
    5.5558   -1.1012    3.1852 N   0  0  0  0  0  0  0  0  0  0  0  0
    5.8246   -3.0150    1.7379 N   0  0  0  0  0  0  0  0  0  0  0  0
    5.4188   -3.6741    0.6246 C   0  0  0  0  0  0  0  0  0  0  0  0
    4.4897   -3.3002   -0.2831 N   0  0  0  0  0  0  0  0  0  0  0  0
    3.7119   -2.3331    0.2347 C   0  0  0  0  0  0  0  0  0  0  0  0
   -5.6427   -7.0256    1.2546 H   0  0  0  0  0  0  0  0  0  0  0  0
   -5.8348   -5.5385    0.6281 H   0  0  0  0  0  0  0  0  0  0  0  0
   -3.7265   -3.9435    4.0350 H   0  0  0  0  0  0  0  0  0  0  0  0
   -2.6323   -5.3654    0.3535 H   0  0  0  0  0  0  0  0  0  0  0  0
   -2.4037   -4.4817    1.8507 H   0  0  0  0  0  0  0  0  0  0  0  0
   -4.7857   -3.3633    0.7543 H   0  0  0  0  0  0  0  0  0  0  0  0
   -3.7017   -3.6115   -0.6252 H   0  0  0  0  0  0  0  0  0  0  0  0
   -3.9908   -0.8750   -0.7518 H   0  0  0  0  0  0  0  0  0  0  0  0
   -4.1751   -0.0997    0.8348 H   0  0  0  0  0  0  0  0  0  0  0  0
   -2.6538    0.0981   -0.0781 H   0  0  0  0  0  0  0  0  0  0  0  0
   -0.5864   -2.4732    1.7127 H   0  0  0  0  0  0  0  0  0  0  0  0
   -0.6491   -1.1428    0.5664 H   0  0  0  0  0  0  0  0  0  0  0  0
   -1.9398   -1.9515   -3.0352 H   0  0  0  0  0  0  0  0  0  0  0  0
    1.1337   -2.4112   -3.6639 H   0  0  0  0  0  0  0  0  0  0  0  0
    1.4731    0.0042    0.2296 H   0  0  0  0  0  0  0  0  0  0  0  0
    6.5548   -1.1892    3.3502 H   0  0  0  0  0  0  0  0  0  0  0  0
    5.0448   -1.4028    4.0113 H   0  0  0  0  0  0  0  0  0  0  0  0
    6.0031   -4.5475    0.3630 H   0  0  0  0  0  0  0  0  0  0  0  0
  2  1  1  0  0  0  0
  2  3  1  0  0  0  0
  4  2  1  0  0  0  0
  5  4  2  0  0  0  0
  6  4  1  0  0  0  0
  7  2  1  0  0  0  0
  8  7  1  0  0  0  0
  9  8  1  0  0  0  0
  9 10  1  0  0  0  0
 11  9  1  0  0  0  0
 12  9  1  0  0  0  0
 13 12  1  0  0  0  0
 13 14  1  0  0  0  0
 15 13  1  0  0  0  0
 16 15  1  0  0  0  0
 16 17  1  0  0  0  0
 18 16  1  0  0  0  0
 18 19  1  0  0  0  0
 20 18  1  0  0  0  0
 20 21  1  0  0  0  0
 20 13  1  0  0  0  0
 22 20  1  0  0  0  0
 23 18  1  0  0  0  0
 24 16  1  0  0  0  0
 25 24  1  0  0  0  0
 26 25  2  0  0  0  0
 27 26  1  0  0  0  0
 28 27  1  0  0  0  0
 29 28  1  0  0  0  0
 30 28  2  0  0  0  0
 31 30  1  0  0  0  0
 32 31  2  0  0  0  0
 33 32  1  0  0  0  0
 33 24  1  0  0  0  0
 33 27  2  0  0  0  0
  1 34  1  0  0  0  0
  1 35  1  0  0  0  0
  6 36  1  0  0  0  0
  7 37  1  0  0  0  0
  7 38  1  0  0  0  0
  8 39  1  0  0  0  0
  8 40  1  0  0  0  0
 11 41  1  0  0  0  0
 11 42  1  0  0  0  0
 11 43  1  0  0  0  0
 12 44  1  0  0  0  0
 12 45  1  0  0  0  0
 22 46  1  0  0  0  0
 23 47  1  0  0  0  0
 25 48  1  0  0  0  0
 29 49  1  0  0  0  0
 29 50  1  0  0  0  0
 31 51  1  0  0  0  0
M  END
>  <energy>
83.139000245386327

$$$$
