REMARK  12 active torsions:
REMARK  status: ('A' for Active; 'I' for Inactive)
REMARK    1  A    between atoms: CA_2  and  N_1 
REMARK    2  A    between atoms: C_3  and  CA_2 
REMARK    3  A    between atoms: C_6  and  CA_2 
REMARK    4  A    between atoms: OXT_5  and  C_3 
REMARK    5  A    between atoms: C_7  and  C_6 
REMARK    6  A    between atoms: S_8  and  C_7 
REMARK    7  A    between atoms: C_11  and  S_8 
REMARK    8  A    between atoms: C_12  and  C_11 
REMARK    9  A    between atoms: N_19  and  C_14 
REMARK   10  A    between atoms: O_18  and  C_15 
REMARK   11  A    between atoms: O_17  and  C_16 
REMARK   12  A    between atoms: N_24  and  C_23 
ROOT
ATOM      1  C   UNL d   1      -0.539  -3.104  -0.349  0.00  0.00     0.163 C 
ATOM      2  O   UNL d   1       0.882  -3.305  -0.139  0.00  0.00    -0.355 OA
ATOM      3  C   UNL d   1       1.624  -2.520  -1.099  0.00  0.00     0.262 C 
ATOM      4  C   UNL d   1       0.589  -1.725  -1.899  0.00  0.00     0.198 C 
ATOM      5  C   UNL d   1      -0.622  -2.623  -1.785  0.00  0.00     0.180 C 
ENDROOT
BRANCH   1   6
ATOM      6  C   UNL d   1      -1.014  -2.157   0.748  0.00  0.00     0.086 C 
BRANCH   6   7
ATOM      7  S   UNL d   1      -2.812  -2.062   0.979  0.00  0.00    -0.264 SA
ATOM      8  H   UNL d   1      -3.022  -1.903   2.297  0.00  0.00     0.081 HD
ATOM      9  C   UNL d   1      -3.467  -0.595   0.165  0.00  0.00     0.066 C 
BRANCH   7  10
ATOM     10  C   UNL d   1      -3.741  -3.528   0.467  0.00  0.00     0.054 C 
BRANCH  10  11
ATOM     11  C   UNL d   1      -3.163  -4.783   1.119  0.00  0.00     0.055 C 
BRANCH  11  12
ATOM     12  CA  UNL d   1      -4.163  -5.724   1.796  0.00  0.00     0.315 C 
BRANCH  12  13
ATOM     13  N   UNL d   1      -5.134  -6.247   0.839  0.00  0.00     0.093 N 
ATOM     14  H1  UNL d   1      -5.643  -7.026   1.255  0.00  0.00     0.314 HD
ATOM     15  H2  UNL d   1      -5.835  -5.538   0.628  0.00  0.00     0.314 HD
ENDBRANCH  12  13
BRANCH  12  16
ATOM     16  C   UNL d   1      -4.890  -5.067   2.950  0.00  0.00     0.173 C 
ATOM     17  O   UNL d   1      -6.074  -4.764   2.978  0.00  0.00    -0.648 OA
BRANCH  16  18
ATOM     18  OXT UNL d   1      -4.045  -4.870   3.995  0.00  0.00    -0.775 OA
ATOM     19  HXT UNL d   1      -3.727  -3.943   4.035  0.00  0.00     0.167 HD
ENDBRANCH  16  18
ENDBRANCH  12  16
ENDBRANCH  11  12
ENDBRANCH  10  11
ENDBRANCH   7  10
ENDBRANCH   6   7
ENDBRANCH   1   6
BRANCH   5  20
ATOM     20  O   UNL d   1      -1.831  -1.959  -2.070  0.00  0.00    -0.390 OA
ATOM     21  H   UNL d   1      -1.940  -1.952  -3.035  0.00  0.00     0.210 HD
ENDBRANCH   5  20
BRANCH   3  22
ATOM     22  N   UNL d   1       2.612  -1.736  -0.355  0.00  0.00    -0.294 N 
ATOM     23  C   UNL d   1       2.273  -0.681   0.473  0.00  0.00     0.214 C 
ATOM     24  N   UNL d   1       3.192  -0.451   1.384  0.00  0.00    -0.236 NA
ATOM     25  C   UNL d   1       4.053  -1.514   1.298  0.00  0.00     0.144 C 
ATOM     26  C   UNL d   1       5.173  -1.864   2.071  0.00  0.00     0.135 C 
ATOM     27  C   UNL d   1       3.712  -2.333   0.235  0.00  0.00     0.166 C 
ATOM     28  N   UNL d   1       5.825  -3.015   1.738  0.00  0.00    -0.228 NA
ATOM     29  C   UNL d   1       5.419  -3.674   0.625  0.00  0.00     0.237 C 
ATOM     30  N   UNL d   1       4.490  -3.300  -0.283  0.00  0.00    -0.222 NA
BRANCH  26  31
ATOM     31  N   UNL d   1       5.556  -1.101   3.185  0.00  0.00    -0.285 NA
ATOM     32  H   UNL d   1       6.555  -1.189   3.350  0.00  0.00     0.125 HD
ATOM     33  H   UNL d   1       5.045  -1.403   4.011  0.00  0.00     0.125 HD
ENDBRANCH  26  31
ENDBRANCH   3  22
BRANCH   4  34
ATOM     34  O   UNL d   1       1.002  -1.541  -3.244  0.00  0.00    -0.388 OA
ATOM     35  H   UNL d   1       1.134  -2.411  -3.664  0.00  0.00     0.210 HD
ENDBRANCH   4  34
TORSDOF 12
