@<TRIPOS>MOLECULE
ligand.pdb
 51 53 0 0 0
SMALL
GASTEIGER

@<TRIPOS>ATOM
      1 N          -5.1344   -6.2468    0.8386 N.3     1  UNL1       -0.3184
      2 CA         -4.1631   -5.7242    1.7962 C.3     1  UNL1        0.1039
      3 HA         -3.6117   -6.5785    2.2043 H       1  UNL1        0.0574
      4 C          -4.8899   -5.0674    2.9505 C.2     1  UNL1        0.3217
      5 O          -6.0738   -4.7644    2.9778 O.2     1  UNL1       -0.2493
      6 OXT        -4.0450   -4.8698    3.9949 O.3     1  UNL1       -0.4795
      7 C          -3.1629   -4.7829    1.1190 C.3     1  UNL1       -0.0199
      8 C          -3.7410   -3.5284    0.4666 C.3     1  UNL1       -0.0230
      9 S          -2.8123   -2.0616    0.9787 S.3     1  UNL1       -0.2533
     10 H          -3.0218   -1.9031    2.2972 H       1  UNL1        0.0821
     11 C          -3.4667   -0.5952    0.1653 C.3     1  UNL1       -0.0366
     12 C          -1.0136   -2.1570    0.7478 C.3     1  UNL1        0.0041
     13 C          -0.5389   -3.1038   -0.3491 C.3     1  UNL1        0.0970
     14 H          -1.0026   -4.0797   -0.2425 H       1  UNL1        0.0631
     15 O           0.8822   -3.3052   -0.1390 O.3     1  UNL1       -0.3472
     16 C           1.6244   -2.5201   -1.0986 C.3     1  UNL1        0.1666
     17 H           2.1838   -3.2129   -1.7521 H       1  UNL1        0.0866
     18 C           0.5889   -1.7254   -1.8992 C.3     1  UNL1        0.1285
     19 H           0.3644   -0.7365   -1.4707 H       1  UNL1        0.0665
     20 C          -0.6223   -2.6226   -1.7852 C.3     1  UNL1        0.1121
     21 H          -0.5370   -3.4744   -2.4687 H       1  UNL1        0.0647
     22 O          -1.8309   -1.9588   -2.0696 O.3     1  UNL1       -0.3865
     23 O           1.0020   -1.5410   -3.2443 O.3     1  UNL1       -0.3847
     24 N           2.6116   -1.7358   -0.3550 N.ar    1  UNL1       -0.2855
     25 C           2.2729   -0.6815    0.4731 C.ar    1  UNL1        0.1004
     26 N           3.1925   -0.4508    1.3840 N.ar    1  UNL1       -0.2306
     27 C           4.0535   -1.5142    1.2984 C.ar    1  UNL1        0.1473
     28 C           5.1732   -1.8641    2.0712 C.ar    1  UNL1        0.1472
     29 N           5.5558   -1.1012    3.1852 N.pl3   1  UNL1       -0.3413
     30 N           5.8246   -3.0150    1.7379 N.ar    1  UNL1       -0.2188
     31 C           5.4188   -3.6741    0.6246 C.ar    1  UNL1        0.1205
     32 N           4.4897   -3.3002   -0.2831 N.ar    1  UNL1       -0.2159
     33 C           3.7119   -2.3331    0.2347 C.ar    1  UNL1        0.1674
     34 H1         -5.6427   -7.0256    1.2546 H       1  UNL1        0.1190
     35 H2         -5.8348   -5.5385    0.6281 H       1  UNL1        0.1190
     36 HXT        -3.7265   -3.9435    4.0350 H       1  UNL1        0.2951
     37 H          -2.6323   -5.3654    0.3535 H       1  UNL1        0.0293
     38 H          -2.4037   -4.4817    1.8507 H       1  UNL1        0.0293
     39 H          -4.7857   -3.3633    0.7543 H       1  UNL1        0.0360
     40 H          -3.7017   -3.6115   -0.6252 H       1  UNL1        0.0360
     41 H          -3.9908   -0.8750   -0.7518 H       1  UNL1        0.0324
     42 H          -4.1751   -0.0997    0.8348 H       1  UNL1        0.0324
     43 H          -2.6538    0.0981   -0.0781 H       1  UNL1        0.0324
     44 H          -0.5864   -2.4732    1.7127 H       1  UNL1        0.0385
     45 H          -0.6491   -1.1428    0.5664 H       1  UNL1        0.0385
     46 H          -1.9398   -1.9515   -3.0352 H       1  UNL1        0.2100
     47 H           1.1337   -2.4112   -3.6639 H       1  UNL1        0.2101
     48 H           1.4731    0.0042    0.2296 H       1  UNL1        0.1030
     49 H           6.5548   -1.1892    3.3502 H       1  UNL1        0.1438
     50 H           5.0448   -1.4028    4.0113 H       1  UNL1        0.1438
     51 H           6.0031   -4.5475    0.3630 H       1  UNL1        0.1048
@<TRIPOS>BOND
     1     2     1    1
     2     2     3    1
     3     4     2    1
     4     5     4    2
     5     6     4    1
     6     7     2    1
     7     8     7    1
     8     9     8    1
     9     9    10    1
    10    11     9    1
    11    12     9    1
    12    13    12    1
    13    13    14    1
    14    15    13    1
    15    16    15    1
    16    16    17    1
    17    18    16    1
    18    18    19    1
    19    20    18    1
    20    20    21    1
    21    20    13    1
    22    22    20    1
    23    23    18    1
    24    24    16    1
    25    25    24   ar
    26    26    25   ar
    27    27    26   ar
    28    28    27   ar
    29    29    28    1
    30    30    28   ar
    31    31    30   ar
    32    32    31   ar
    33    33    32   ar
    34    33    24   ar
    35    33    27   ar
    36     1    34    1
    37     1    35    1
    38     6    36    1
    39     7    37    1
    40     7    38    1
    41     8    39    1
    42     8    40    1
    43    11    41    1
    44    11    42    1
    45    11    43    1
    46    12    44    1
    47    12    45    1
    48    22    46    1
    49    23    47    1
    50    25    48    1
    51    29    49    1
    52    29    50    1
    53    31    51    1
