REMARK  26 active torsions:
REMARK  status: ('A' for Active; 'I' for Inactive)
REMARK    1  A    between atoms: C_2  and  C_3 
REMARK    2  A    between atoms: C_3  and  N_4 
REMARK    3  A    between atoms: C_6  and  O_11 
REMARK    4  A    between atoms: C_7  and  N_10 
REMARK    5  A    between atoms: C_8  and  O_9 
REMARK    6  A    between atoms: O_11  and  C_12 
REMARK    7  A    between atoms: C_13  and  O_28 
REMARK    8  A    between atoms: C_14  and  O_27 
REMARK    9  A    between atoms: C_15  and  N_19 
REMARK   10  A    between atoms: C_17  and  N_18 
REMARK       I    between atoms: N_19  and  C_20 
REMARK   11  A    between atoms: C_22  and  C_20 
REMARK   12  A    between atoms: C_22  and  C_23 
REMARK   13  A    between atoms: C_22  and  O_26 
REMARK   14  A    between atoms: C_23  and  C_24 
REMARK   15  A    between atoms: C_24  and  N_25 
REMARK   16  A    between atoms: O_28  and  C_29 
REMARK   17  A    between atoms: C_30  and  O_48 
REMARK   18  A    between atoms: C_31  and  O_36 
REMARK   19  A    between atoms: C_32  and  C_33 
REMARK   20  A    between atoms: C_33  and  O_34 
REMARK   21  A    between atoms: C_37  and  O_36 
REMARK   22  A    between atoms: C_38  and  N_47 
REMARK   23  A    between atoms: C_39  and  O_46 
REMARK   24  A    between atoms: C_40  and  O_45 
REMARK   25  A    between atoms: C_41  and  C_42 
REMARK   26  A    between atoms: C_42  and  N_43 
ROOT
ATOM      1  C   UNL d   1      -5.809  -9.125  -0.627  0.00  0.00     0.189 C 
ATOM      2  C   UNL d   1      -4.479  -8.817   0.251  0.00  0.00     0.186 C 
ATOM      3  C   UNL d   1      -3.684 -10.218   0.540  0.00  0.00     0.172 C 
ATOM      4  C   UNL d   1      -4.797 -11.264   0.658  0.00  0.00     0.118 C 
ATOM      5  C   UNL d   1      -6.104 -10.729   1.286  0.00  0.00     0.066 C 
ATOM      6  C   UNL d   1      -6.828  -9.797   0.324  0.00  0.00     0.251 C 
ENDROOT
BRANCH   2   7
ATOM      7  O   UNL d   1      -3.518  -8.029  -0.492  0.00  0.00    -0.348 OA
BRANCH   7   8
ATOM      8  C   UNL d   1      -2.498  -7.299   0.222  0.00  0.00     0.292 C 
ATOM      9  C   UNL d   1      -2.744  -6.742   1.624  0.00  0.00     0.205 C 
ATOM     10  C   UNL d   1      -1.472  -5.906   1.781  0.00  0.00     0.189 C 
ATOM     11  C   UNL d   1      -0.408  -6.793   1.106  0.00  0.00     0.180 C 
ATOM     12  O   UNL d   1      -1.157  -7.868   0.445  0.00  0.00    -0.348 OA
BRANCH   9  13
ATOM     13  O   UNL d   1      -3.897  -5.937   1.716  0.00  0.00    -0.388 OA
ATOM     14  H   UNL d   1      -4.552  -6.443   2.225  0.00  0.00     0.210 HD
ENDBRANCH   9  13
BRANCH  10  15
ATOM     15  O   UNL d   1      -1.624  -4.779   0.929  0.00  0.00    -0.348 OA
BRANCH  15  16
ATOM     16  C   UNL d   1      -1.464  -3.472   1.434  0.00  0.00     0.296 C 
ATOM     17  C   UNL d   1      -0.653  -2.636   0.305  0.00  0.00     0.303 C 
ATOM     18  C   UNL d   1       0.460  -1.917   1.118  0.00  0.00     0.187 C 
ATOM     19  C   UNL d   1       0.514  -1.322   2.569  0.00  0.00     0.179 C 
ATOM     20  C   UNL d   1      -0.712  -2.041   3.319  0.00  0.00     0.183 C 
ATOM     21  O   UNL d   1      -0.917  -3.389   2.792  0.00  0.00    -0.349 OA
BRANCH  17  22
ATOM     22  N   UNL d   1      -0.168  -3.413  -0.843  0.00  0.00     0.090 N 
ATOM     23  H   UNL d   1      -0.920  -3.502  -1.528  0.00  0.00     0.313 HD
ATOM     24  H   UNL d   1       0.018  -4.370  -0.549  0.00  0.00     0.313 HD
ENDBRANCH  17  22
BRANCH  18  25
ATOM     25  O   UNL d   1       1.185  -3.156   1.378  0.00  0.00    -0.391 OA
ATOM     26  H   UNL d   1       1.160  -3.397   2.319  0.00  0.00     0.210 HD
ENDBRANCH  18  25
BRANCH  19  27
ATOM     27  O   UNL d   1       1.756  -1.607   3.202  0.00  0.00    -0.390 OA
ATOM     28  H   UNL d   1       2.316  -0.819   3.098  0.00  0.00     0.210 HD
ENDBRANCH  19  27
BRANCH  20  29
ATOM     29  C   UNL d   1      -0.617  -2.110   4.832  0.00  0.00     0.301 C 
BRANCH  29  30
ATOM     30  N   UNL d   1      -1.947  -1.925   5.414  0.00  0.00     0.080 N 
ATOM     31  H   UNL d   1      -2.596  -2.584   4.984  0.00  0.00     0.312 HD
ATOM     32  H   UNL d   1      -2.295  -0.996   5.170  0.00  0.00     0.312 HD
ENDBRANCH  29  30
ENDBRANCH  20  29
ENDBRANCH  15  16
ENDBRANCH  10  15
BRANCH  11  33
ATOM     33  C   UNL d   1       0.781  -7.148   2.014  0.00  0.00     0.198 C 
BRANCH  33  34
ATOM     34  O   UNL d   1       1.131  -8.516   1.948  0.00  0.00    -0.398 OA
ATOM     35  H   UNL d   1       1.930  -8.588   1.397  0.00  0.00     0.209 HD
ENDBRANCH  33  34
ENDBRANCH  11  33
ENDBRANCH   7   8
ENDBRANCH   2   7
BRANCH   1  36
ATOM     36  O   UNL d   1      -6.499  -8.029  -1.230  0.00  0.00    -0.349 OA
BRANCH  36  37
ATOM     37  C   UNL d   1      -6.998  -8.120  -2.601  0.00  0.00     0.296 C 
ATOM     38  O   UNL d   1      -6.170  -7.267  -3.412  0.00  0.00    -0.349 OA
ATOM     39  C   UNL d   1      -4.877  -7.867  -3.577  0.00  0.00     0.189 C 
ATOM     40  C   UNL d   1      -4.991  -8.998  -4.596  0.00  0.00     0.231 C 
ATOM     41  F   UNL d   1      -5.541  -8.515  -5.745  0.00  0.00    -0.244 F 
ATOM     42  C   UNL d   1      -5.931 -10.057  -3.993  0.00  0.00     0.192 C 
ATOM     43  C   UNL d   1      -7.250  -9.406  -3.500  0.00  0.00     0.303 C 
BRANCH  39  44
ATOM     44  C   UNL d   1      -3.885  -6.725  -3.695  0.00  0.00     0.301 C 
BRANCH  44  45
ATOM     45  N   UNL d   1      -2.532  -7.158  -3.992  0.00  0.00     0.080 N 
ATOM     46  H   UNL d   1      -2.544  -8.057  -4.467  0.00  0.00     0.312 HD
ATOM     47  H   UNL d   1      -2.042  -7.314  -3.111  0.00  0.00     0.312 HD
ENDBRANCH  44  45
ENDBRANCH  39  44
BRANCH  42  48
ATOM     48  O   UNL d   1      -6.189 -11.069  -4.965  0.00  0.00    -0.390 OA
ATOM     49  H   UNL d   1      -6.109 -11.933  -4.518  0.00  0.00     0.210 HD
ENDBRANCH  42  48
BRANCH  43  50
ATOM     50  N   UNL d   1      -8.197 -10.402  -3.014  0.00  0.00     0.090 N 
ATOM     51  H   UNL d   1      -7.717 -10.977  -2.323  0.00  0.00     0.313 HD
ATOM     52  H   UNL d   1      -8.421 -11.059  -3.764  0.00  0.00     0.313 HD
ENDBRANCH  43  50
ENDBRANCH  36  37
ENDBRANCH   1  36
BRANCH   3  53
ATOM     53  O   UNL d   1      -2.822 -10.840   1.579  0.00  0.00    -0.391 OA
ATOM     54  H   UNL d   1      -2.320 -11.517   1.081  0.00  0.00     0.210 HD
ENDBRANCH   3  53
BRANCH   6  55
ATOM     55  N   UNL d   1      -7.799 -10.582  -0.404  0.00  0.00     0.085 N 
ATOM     56  H   UNL d   1      -8.764 -10.320  -0.218  0.00  0.00     0.313 HD
ATOM     57  H   UNL d   1      -7.727 -11.578  -0.246  0.00  0.00     0.313 HD
ENDBRANCH   6  55
BRANCH   4  58
ATOM     58  N   UNL d   1      -4.915 -11.927  -0.639  0.00  0.00    -0.352 N 
ATOM     59  C   UNL d   1      -3.761 -12.160  -1.383  0.00  0.00     0.246 C 
ATOM     60  O   UNL d   1      -3.263 -11.329  -2.157  0.00  0.00    -0.271 OA
ATOM     61  H   UNL d   1      -5.778 -11.790  -1.163  0.00  0.00     0.163 HD
BRANCH  59  62
ATOM     62  C   UNL d   1      -3.220 -13.582  -1.346  0.00  0.00     0.211 C 
BRANCH  62  63
ATOM     63  C   UNL d   1      -4.028 -14.593  -0.525  0.00  0.00     0.071 C 
BRANCH  63  64
ATOM     64  C   UNL d   1      -3.756 -14.559   0.986  0.00  0.00     0.269 C 
BRANCH  64  65
ATOM     65  N   UNL d   1      -3.376 -15.874   1.485  0.00  0.00     0.078 N 
ATOM     66  H   UNL d   1      -2.457 -16.108   1.114  0.00  0.00     0.312 HD
ATOM     67  H   UNL d   1      -4.019 -16.582   1.129  0.00  0.00     0.312 HD
ENDBRANCH  64  65
ENDBRANCH  63  64
ENDBRANCH  62  63
BRANCH  62  68
ATOM     68  O   UNL d   1      -1.895 -13.436  -0.838  0.00  0.00    -0.386 OA
ATOM     69  H   UNL d   1      -1.468 -14.309  -0.862  0.00  0.00     0.210 HD
ENDBRANCH  62  68
ENDBRANCH  59  62
ENDBRANCH   4  58
TORSDOF 26
