@<TRIPOS>MOLECULE
4PDQ_NMZ_B_101
 101 104 0 0 0
SMALL
GASTEIGER

@<TRIPOS>ATOM
      1 C          -4.9906   -8.9981   -4.5959 C.3     1  UNL1        0.1555
      2 H          -4.0245   -9.4528   -4.8437 H       1  UNL1        0.0705
      3 C          -4.8765   -7.8668   -3.5769 C.3     1  UNL1        0.1073
      4 H          -4.5779   -8.3493   -2.6508 H       1  UNL1        0.0639
      5 C          -3.8849   -6.7254   -3.6947 C.3     1  UNL1        0.0225
      6 N          -2.5320   -7.1582   -3.9920 N.3     1  UNL1       -0.3276
      7 O          -6.1703   -7.2667   -3.4122 O.3     1  UNL1       -0.3422
      8 C          -6.9980   -8.1205   -2.6009 C.3     1  UNL1        0.1776
      9 H          -7.9801   -7.6289   -2.5598 H       1  UNL1        0.0927
     10 C          -7.2495   -9.4059   -3.5004 C.3     1  UNL1        0.0856
     11 H          -7.7178   -9.0337   -4.4267 H       1  UNL1        0.0535
     12 C          -5.9308  -10.0575   -3.9930 C.3     1  UNL1        0.1084
     13 H          -5.4223  -10.5714   -3.1830 H       1  UNL1        0.0640
     14 O          -6.1895  -11.0691   -4.9653 O.3     1  UNL1       -0.3871
     15 N          -8.1971  -10.4019   -3.0142 N.3     1  UNL1       -0.3211
     16 O          -6.4987   -8.0289   -1.2299 O.3     1  UNL1       -0.3422
     17 C          -5.8088   -9.1247   -0.6267 C.3     1  UNL1        0.1055
     18 H          -5.5210   -9.7771   -1.4357 H       1  UNL1        0.0639
     19 C          -4.4793   -8.8172    0.2507 C.3     1  UNL1        0.1169
     20 H          -4.8014   -8.3058    1.1740 H       1  UNL1        0.0650
     21 C          -3.6838  -10.2182    0.5405 C.3     1  UNL1        0.1022
     22 H          -3.1686   -9.4463    1.0727 H       1  UNL1        0.0639
     23 C          -4.7967  -11.2639    0.6583 C.3     1  UNL1        0.0531
     24 H          -4.5224  -12.0812    1.3300 H       1  UNL1        0.0525
     25 C          -6.1036  -10.7291    1.2863 C.3     1  UNL1       -0.0143
     26 C          -6.8281   -9.7971    0.3236 C.3     1  UNL1        0.0358
     27 H          -7.3947   -9.0360    0.8689 H       1  UNL1        0.0485
     28 N          -7.7990  -10.5817   -0.4036 N.3     1  UNL1       -0.3250
     29 N          -4.9149  -11.9266   -0.6389 N.am    1  UNL1       -0.3077
     30 C          -3.7613  -12.1601   -1.3829 C.2     1  UNL1        0.2420
     31 O          -3.2627  -11.3289   -2.1568 O.2     1  UNL1       -0.2730
     32 C          -3.2196  -13.5815   -1.3458 C.3     1  UNL1        0.1320
     33 H          -3.1251  -13.9489   -2.3838 H       1  UNL1        0.0690
     34 C          -4.0283  -14.5931   -0.5248 C.3     1  UNL1       -0.0059
     35 C          -3.7557  -14.5591    0.9855 C.3     1  UNL1       -0.0041
     36 N          -3.3759  -15.8738    1.4846 N.3     1  UNL1       -0.3299
     37 O          -1.8953  -13.4357   -0.8383 O.3     1  UNL1       -0.3825
     38 O          -2.8218  -10.8402    1.5795 O.3     1  UNL1       -0.3873
     39 O          -3.5182   -8.0286   -0.4919 O.3     1  UNL1       -0.3402
     40 C          -2.4978   -7.2991    0.2222 C.3     1  UNL1        0.1884
     41 H          -2.3237   -6.4754   -0.4750 H       1  UNL1        0.0938
     42 C          -2.7438   -6.7416    1.6240 C.3     1  UNL1        0.1345
     43 H          -2.7663   -7.5430    2.3848 H       1  UNL1        0.0671
     44 C          -1.4720   -5.9060    1.7807 C.3     1  UNL1        0.1205
     45 H          -1.2528   -5.6565    2.8231 H       1  UNL1        0.0651
     46 C          -0.4081   -6.7928    1.1062 C.3     1  UNL1        0.1135
     47 H           0.0553   -6.2582    0.2711 H       1  UNL1        0.0647
     48 C           0.7815   -7.1477    2.0136 C.3     1  UNL1        0.0730
     49 O           1.1308   -8.5164    1.9485 O.3     1  UNL1       -0.3924
     50 O          -1.1567   -7.8680    0.4449 O.3     1  UNL1       -0.3405
     51 O          -1.6239   -4.7791    0.9293 O.3     1  UNL1       -0.3410
     52 C          -1.4640   -3.4722    1.4343 C.3     1  UNL1        0.1776
     53 H          -2.4760   -3.0651    1.4804 H       1  UNL1        0.0927
     54 C          -0.6531   -2.6363    0.3053 C.3     1  UNL1        0.0853
     55 H          -1.3527   -1.9249   -0.1708 H       1  UNL1        0.0535
     56 C           0.4598   -1.9171    1.1176 C.3     1  UNL1        0.1033
     57 H          -0.5463   -1.5690    1.4258 H       1  UNL1        0.0637
     58 C           0.5144   -1.3217    2.5691 C.3     1  UNL1        0.1100
     59 H           0.3729   -0.2272    2.5714 H       1  UNL1        0.0646
     60 C          -0.7117   -2.0405    3.3188 C.3     1  UNL1        0.1022
     61 H          -1.6205   -1.4816    3.0546 H       1  UNL1        0.0636
     62 C          -0.6169   -2.1103    4.8323 C.3     1  UNL1        0.0222
     63 N          -1.9472   -1.9248    5.4144 N.3     1  UNL1       -0.3276
     64 O          -0.9166   -3.3892    2.7919 O.3     1  UNL1       -0.3425
     65 O           1.7558   -1.6069    3.2021 O.3     1  UNL1       -0.3866
     66 O           1.1847   -3.1559    1.3782 O.3     1  UNL1       -0.3874
     67 N          -0.1675   -3.4134   -0.8427 N.3     1  UNL1       -0.3211
     68 O          -3.8965   -5.9368    1.7164 O.3     1  UNL1       -0.3841
     69 F          -5.5414   -8.5146   -5.7447 F       1  UNL1       -0.2400
     70 H          -3.8634   -6.2304   -2.7094 H       1  UNL1        0.0448
     71 H          -4.2235   -5.9604   -4.3938 H       1  UNL1        0.0448
     72 H          -2.5440   -8.0575   -4.4666 H       1  UNL1        0.1183
     73 H          -2.0421   -7.3137   -3.1115 H       1  UNL1        0.1183
     74 H          -6.1087  -11.9333   -4.5178 H       1  UNL1        0.2100
     75 H          -7.7166  -10.9766   -2.3229 H       1  UNL1        0.1187
     76 H          -8.4207  -11.0589   -3.7645 H       1  UNL1        0.1187
     77 H          -6.7613  -11.5690    1.5943 H       1  UNL1        0.0300
     78 H          -5.8522  -10.1442    2.1920 H       1  UNL1        0.0300
     79 H          -8.7635  -10.3201   -0.2181 H       1  UNL1        0.1185
     80 H          -7.7273  -11.5779   -0.2464 H       1  UNL1        0.1185
     81 H          -5.7778  -11.7895   -1.1631 H       1  UNL1        0.1491
     82 H          -3.8308  -15.5906   -0.9447 H       1  UNL1        0.0307
     83 H          -5.0997  -14.4213   -0.6997 H       1  UNL1        0.0307
     84 H          -4.6636  -14.2565    1.5106 H       1  UNL1        0.0423
     85 H          -2.9785  -13.8366    1.2622 H       1  UNL1        0.0423
     86 H          -2.4565  -16.1082    1.1144 H       1  UNL1        0.1182
     87 H          -4.0188  -16.5824    1.1294 H       1  UNL1        0.1182
     88 H          -1.4685  -14.3088   -0.8621 H       1  UNL1        0.2104
     89 H          -2.3204  -11.5167    1.0814 H       1  UNL1        0.2100
     90 H           1.6617   -6.5632    1.7009 H       1  UNL1        0.0584
     91 H           0.6144   -6.8774    3.0633 H       1  UNL1        0.0584
     92 H           1.9303   -8.5879    1.3965 H       1  UNL1        0.2095
     93 H           0.0406   -1.3365    5.2262 H       1  UNL1        0.0448
     94 H          -0.2215   -3.0741    5.1636 H       1  UNL1        0.0448
     95 H          -2.5963   -2.5840    4.9835 H       1  UNL1        0.1183
     96 H          -2.2953   -0.9961    5.1704 H       1  UNL1        0.1183
     97 H           2.3159   -0.8194    3.0980 H       1  UNL1        0.2100
     98 H           1.1596   -3.3965    2.3191 H       1  UNL1        0.2100
     99 H          -0.9197   -3.5018   -1.5279 H       1  UNL1        0.1187
    100 H           0.0176   -4.3697   -0.5488 H       1  UNL1        0.1187
    101 H          -4.5519   -6.4434    2.2254 H       1  UNL1        0.2101
@<TRIPOS>BOND
     1     1     2    1
     2     1     3    1
     3     1    69    1
     4     3     4    1
     5     3     5    1
     6     3     7    1
     7     5     6    1
     8     5    70    1
     9     5    71    1
    10     6    72    1
    11     6    73    1
    12     7     8    1
    13     8     9    1
    14     8    10    1
    15     8    16    1
    16    10    11    1
    17    10    12    1
    18    10    15    1
    19    12     1    1
    20    12    14    1
    21    12    13    1
    22    14    74    1
    23    15    75    1
    24    15    76    1
    25    16    17    1
    26    17    18    1
    27    17    19    1
    28    19    21    1
    29    19    39    1
    30    19    20    1
    31    21    23    1
    32    21    38    1
    33    21    22    1
    34    23    24    1
    35    23    25    1
    36    23    29    1
    37    25    26    1
    38    25    77    1
    39    25    78    1
    40    26    27    1
    41    26    17    1
    42    26    28    1
    43    28    79    1
    44    28    80    1
    45    29    30   am
    46    29    81    1
    47    30    31    2
    48    32    34    1
    49    32    37    1
    50    32    33    1
    51    32    30    1
    52    34    35    1
    53    34    82    1
    54    34    83    1
    55    35    36    1
    56    35    84    1
    57    35    85    1
    58    36    86    1
    59    36    87    1
    60    37    88    1
    61    38    89    1
    62    39    40    1
    63    40    41    1
    64    40    42    1
    65    40    50    1
    66    42    44    1
    67    42    68    1
    68    42    43    1
    69    44    45    1
    70    44    46    1
    71    44    51    1
    72    46    50    1
    73    46    48    1
    74    46    47    1
    75    48    49    1
    76    48    90    1
    77    48    91    1
    78    49    92    1
    79    52    54    1
    80    52    64    1
    81    52    53    1
    82    52    51    1
    83    54    56    1
    84    54    67    1
    85    54    55    1
    86    56    58    1
    87    56    66    1
    88    56    57    1
    89    58    59    1
    90    58    60    1
    91    58    65    1
    92    60    61    1
    93    60    62    1
    94    60    64    1
    95    62    63    1
    96    62    93    1
    97    62    94    1
    98    63    95    1
    99    63    96    1
   100    65    97    1
   101    66    98    1
   102    67    99    1
   103    67   100    1
   104    68   101    1
