REMARK  12 active torsions:
REMARK  status: ('A' for Active; 'I' for Inactive)
REMARK    1  A    between atoms: N_6  and  C_5 
REMARK    2  A    between atoms: C_9  and  C_7 
REMARK    3  A    between atoms: N_10  and  C_9 
REMARK    4  A    between atoms: C_16  and  C_13 
REMARK    5  A    between atoms: C_17  and  C_16 
REMARK    6  A    between atoms: O_18  and  C_17 
REMARK    7  A    between atoms: P_19  and  O_18 
REMARK    8  A    between atoms: O_21  and  P_19 
REMARK    9  A    between atoms: O_22  and  P_19 
REMARK   10  A    between atoms: P_23  and  O_22 
REMARK   11  A    between atoms: O_25  and  P_23 
REMARK   12  A    between atoms: O_26  and  P_23 
ROOT
ATOM      1  N   UNL d   1      -2.732   0.449   0.917  0.00  0.00    -0.349 N 
ATOM      2  C   UNL d   1      -3.755  -0.050   1.589  0.00  0.00     0.141 C 
ATOM      3  S   UNL d   1      -4.667   1.175   2.341  0.00  0.00    -0.087 SA
ATOM      4  C   UNL d   1      -3.447   2.349   2.009  0.00  0.00     0.008 C 
ATOM      5  C   UNL d   1      -2.565   1.819   1.078  0.00  0.00     0.021 C 
ATOM      6  C   UNL d   1      -1.619   2.554   0.202  0.00  0.00     0.069 C 
ENDROOT
BRANCH   4   7
ATOM      7  C   UNL d   1      -3.265   3.488   2.974  0.00  0.00     0.075 C 
BRANCH   7   8
ATOM      8  C   UNL d   1      -2.939   4.831   2.341  0.00  0.00     0.185 C 
BRANCH   8   9
ATOM      9  O   UNL d   1      -3.839   5.085   1.277  0.00  0.00    -0.296 OA
BRANCH   9  10
ATOM     10  P   UNL d   1      -4.180   6.604   0.857  0.00  0.00     0.401 P 
ATOM     11  O   UNL d   1      -4.588   7.517   1.973  0.00  0.00    -0.631 OA
BRANCH  10  12
ATOM     12  O   UNL d   1      -2.876   7.074   0.023  0.00  0.00    -0.307 OA
ATOM     13  H   UNL d   1      -2.959   7.246  -0.938  0.00  0.00     0.222 HD
ENDBRANCH  10  12
BRANCH  10  14
ATOM     14  O   UNL d   1      -5.299   6.407  -0.295  0.00  0.00    -0.195 OA
BRANCH  14  15
ATOM     15  P   UNL d   1      -6.831   5.908  -0.189  0.00  0.00     0.399 P 
ATOM     16  O   UNL d   1      -7.027   4.591   0.502  0.00  0.00    -0.631 OA
BRANCH  15  17
ATOM     17  O   UNL d   1      -7.348   5.960  -1.721  0.00  0.00    -0.307 OA
ATOM     18  H   UNL d   1      -7.025   6.675  -2.308  0.00  0.00     0.222 HD
ENDBRANCH  15  17
BRANCH  15  19
ATOM     19  O   UNL d   1      -7.581   7.163   0.498  0.00  0.00    -0.307 OA
ATOM     20  H   UNL d   1      -7.685   7.994  -0.017  0.00  0.00     0.222 HD
ENDBRANCH  15  19
ENDBRANCH  14  15
ENDBRANCH  10  14
ENDBRANCH   9  10
ENDBRANCH   8   9
ENDBRANCH   7   8
ENDBRANCH   4   7
BRANCH   1  21
ATOM     21  C   UNL d   1      -1.796  -0.442   0.216  0.00  0.00     0.172 C 
BRANCH  21  22
ATOM     22  C   UNL d   1      -2.087  -0.570  -1.259  0.00  0.00     0.018 A 
ATOM     23  C   UNL d   1      -3.132  -1.323  -1.800  0.00  0.00     0.112 A 
ATOM     24  N   UNL d   1      -3.235  -1.560  -3.132  0.00  0.00    -0.222 NA
ATOM     25  C   UNL d   1      -2.253  -1.083  -3.926  0.00  0.00     0.123 A 
ATOM     26  N   UNL d   1      -1.205  -0.352  -3.512  0.00  0.00    -0.245 NA
ATOM     27  C   UNL d   1      -2.312  -1.423  -5.382  0.00  0.00     0.093 C 
ATOM     28  C   UNL d   1      -1.143  -0.138  -2.183  0.00  0.00     0.131 A 
BRANCH  23  29
ATOM     29  N   UNL d   1      -4.101  -1.900  -0.954  0.00  0.00    -0.286 NA
ATOM     30  H   UNL d   1      -4.929  -1.306  -0.904  0.00  0.00     0.125 HD
ATOM     31  H   UNL d   1      -4.366  -2.820  -1.294  0.00  0.00     0.125 HD
ENDBRANCH  23  29
ENDBRANCH  21  22
ENDBRANCH   1  21
TORSDOF 12
