@<TRIPOS>MOLECULE
3D2G_TPP_A_83
 45 46 0 0 0
SMALL
GASTEIGER

@<TRIPOS>ATOM
      1 N          -1.2052   -0.3524   -3.5116 N.ar    1  UNL1       -0.2400
      2 C          -2.2527   -1.0834   -3.9265 C.ar    1  UNL1        0.1280
      3 C          -2.3116   -1.4228   -5.3824 C.3     1  UNL1       -0.0046
      4 N          -3.2349   -1.5603   -3.1322 N.ar    1  UNL1       -0.2176
      5 C          -3.1319   -1.3230   -1.8000 C.ar    1  UNL1        0.1289
      6 N          -4.1012   -1.8998   -0.9540 N.pl3   1  UNL1       -0.3427
      7 C          -2.0871   -0.5704   -1.2590 C.ar    1  UNL1        0.0747
      8 C          -1.1433   -0.1381   -2.1829 C.ar    1  UNL1        0.0421
      9 C          -1.7963   -0.4421    0.2157 C.3     1  UNL1        0.1811
     10 N          -2.7325    0.4486    0.9170 N.ar    1  UNL1       -0.1903
     11 C          -3.7550   -0.0497    1.5888 C.ar    1  UNL1        0.2109
     12 S          -4.6665    1.1745    2.3407 S.2     1  UNL1       -0.0273
     13 C          -3.4468    2.3491    2.0093 C.ar    1  UNL1        0.0636
     14 C          -2.5651    1.8188    1.0783 C.ar    1  UNL1        0.1915
     15 C          -1.6194    2.5539    0.2018 C.3     1  UNL1        0.0216
     16 C          -3.2650    3.4880    2.9738 C.3     1  UNL1        0.0088
     17 C          -2.9386    4.8307    2.3414 C.3     1  UNL1        0.0637
     18 O          -3.8394    5.0845    1.2767 O.3     1  UNL1       -0.2860
     19 P          -4.1803    6.6045    0.8568 P.3     1  UNL1        0.4834
     20 O          -4.5878    7.5170    1.9730 O.2     1  UNL1       -0.2269
     21 O          -2.8760    7.0742    0.0231 O.3     1  UNL1       -0.3022
     22 O          -5.2986    6.4070   -0.2949 O.3     1  UNL1       -0.1862
     23 P          -6.8313    5.9076   -0.1886 P.3     1  UNL1        0.4808
     24 O          -7.0273    4.5908    0.5020 O.2     1  UNL1       -0.2271
     25 O          -7.3478    5.9602   -1.7207 O.3     1  UNL1       -0.3023
     26 O          -7.5807    7.1631    0.4976 O.3     1  UNL1       -0.3023
     27 H          -2.1294   -0.5314   -5.9873 H       1  UNL1        0.0308
     28 H          -1.5453   -2.1686   -5.6132 H       1  UNL1        0.0308
     29 H          -3.2897   -1.8321   -5.6530 H       1  UNL1        0.0308
     30 H          -4.9293   -1.3055   -0.9044 H       1  UNL1        0.1437
     31 H          -4.3656   -2.8199   -1.2939 H       1  UNL1        0.1437
     32 H          -0.3196    0.5056   -1.8781 H       1  UNL1        0.0836
     33 H          -1.8250   -1.4373    0.6795 H       1  UNL1        0.1087
     34 H          -0.7778   -0.0718    0.3847 H       1  UNL1        0.1087
     35 H          -4.0176   -1.0983    1.6143 H       1  UNL1        0.1462
     36 H          -0.6020    2.4912    0.5972 H       1  UNL1        0.0336
     37 H          -1.6336    2.1764   -0.8212 H       1  UNL1        0.0336
     38 H          -1.8888    3.6092    0.1159 H       1  UNL1        0.0336
     39 H          -4.1662    3.6120    3.5884 H       1  UNL1        0.0343
     40 H          -2.4589    3.2186    3.6678 H       1  UNL1        0.0343
     41 H          -3.0322    5.6178    3.0974 H       1  UNL1        0.0569
     42 H          -1.9093    4.8624    1.9707 H       1  UNL1        0.0569
     43 H          -2.9588    7.2456   -0.9384 H       1  UNL1        0.2220
     44 H          -7.0246    6.6752   -2.3082 H       1  UNL1        0.2220
     45 H          -7.6852    7.9937   -0.0171 H       1  UNL1        0.2220
@<TRIPOS>BOND
     1     2     1   ar
     2     3     2    1
     3     4     2   ar
     4     5     4   ar
     5     6     5    1
     6     7     5   ar
     7     8     7   ar
     8     8     1   ar
     9     9     7    1
    10    10     9    1
    11    11    10   ar
    12    12    11   ar
    13    13    12   ar
    14    14    13   ar
    15    14    10   ar
    16    15    14    1
    17    16    13    1
    18    17    16    1
    19    18    17    1
    20    19    18    1
    21    20    19    2
    22    21    19    1
    23    22    19    1
    24    23    22    1
    25    24    23    2
    26    25    23    1
    27    26    23    1
    28     3    27    1
    29     3    28    1
    30     3    29    1
    31     6    30    1
    32     6    31    1
    33     8    32    1
    34     9    33    1
    35     9    34    1
    36    11    35    1
    37    15    36    1
    38    15    37    1
    39    15    38    1
    40    16    39    1
    41    16    40    1
    42    17    41    1
    43    17    42    1
    44    21    43    1
    45    25    44    1
    46    26    45    1
