REMARK  0 active torsions:
REMARK  status: ('A' for Active; 'I' for Inactive)
ROOT
ATOM      1  N   UNL d   1      12.141  10.712   9.065  0.00  0.00    -0.184 NA
ATOM      2  C   UNL d   1      11.700  12.004   9.230  0.00  0.00     0.203 A 
ATOM      3  N   UNL d   1      11.226  12.726   8.213  0.00  0.00    -0.203 NA
ATOM      4  C   UNL d   1      11.229  12.057   7.025  0.00  0.00     0.188 A 
ATOM      5  C   UNL d   1      11.658  10.765   6.793  0.00  0.00     0.176 A 
ATOM      6  C   UNL d   1      12.163   9.989   7.872  0.00  0.00     0.301 A 
ATOM      7  O   UNL d   1      12.592   8.829   7.892  0.00  0.00    -0.263 OA
ATOM      8  N   UNL d   1      11.490  10.485   5.466  0.00  0.00    -0.216 NA
ATOM      9  C   UNL d   1      10.962  11.594   4.898  0.00  0.00     0.201 A 
ATOM     10  N   UNL d   1      10.789  12.587   5.838  0.00  0.00    -0.203 NA
ENDROOT
TORSDOF 0
