4FE5_HPA_B_101
 OpenBabel10091713573D
Coordinates from PDB:4FE5:B:101 Model:1 without hydrogens
 14 15  0  0  0  0  0  0  0  0999 V2000
   12.1410   10.7120    9.0650 N   0  0  0  0  0  0  0  0  0  0  0  0
   11.7000   12.0040    9.2300 C   0  0  0  0  0  0  0  0  0  0  0  0
   11.2260   12.7260    8.2130 N   0  0  0  0  0  0  0  0  0  0  0  0
   11.2290   12.0570    7.0250 C   0  0  0  0  0  0  0  0  0  0  0  0
   11.6580   10.7650    6.7930 C   0  0  0  0  0  0  0  0  0  0  0  0
   12.1630    9.9890    7.8720 C   0  0  0  0  0  0  0  0  0  0  0  0
   12.5920    8.8290    7.8920 O   0  0  0  0  0  0  0  0  0  0  0  0
   11.4900   10.4850    5.4660 N   0  0  0  0  0  0  0  0  0  0  0  0
   10.9620   11.5940    4.8980 C   0  0  0  0  0  0  0  0  0  0  0  0
   10.7890   12.5870    5.8380 N   0  0  0  0  0  0  0  0  0  0  0  0
   12.4744   10.2514    9.8687 H   0  0  0  0  0  0  0  0  0  0  0  0
   11.7368   12.4285   10.1699 H   0  0  0  0  0  0  0  0  0  0  0  0
   11.7104    9.6401    5.0113 H   0  0  0  0  0  0  0  0  0  0  0  0
   10.7219   11.6839    3.8984 H   0  0  0  0  0  0  0  0  0  0  0  0
  1  2  1  0  0  0  0
  1  6  1  0  0  0  0
  1 11  1  0  0  0  0
  2  3  2  0  0  0  0
  2 12  1  0  0  0  0
  3  4  1  0  0  0  0
  4  5  2  0  0  0  0
  4 10  1  0  0  0  0
  5  6  1  0  0  0  0
  5  8  1  0  0  0  0
  6  7  2  0  0  0  0
  8  9  1  0  0  0  0
  8 13  1  0  0  0  0
  9 10  2  0  0  0  0
  9 14  1  0  0  0  0
M  END
$$$$
