REMARK  1 active torsions:
REMARK  status: ('A' for Active; 'I' for Inactive)
REMARK    1  A    between atoms: N_1  and  C_2 
ROOT
ATOM      1  C   UNL d   1       2.533   0.053  -0.122  0.00  0.00     0.181 A 
ATOM      2  N   UNL d   1       3.138   1.194  -0.062  0.00  0.00    -0.200 NA
ATOM      3  C   UNL d   1       4.505   1.205   0.039  0.00  0.00     0.159 A 
ATOM      4  C   UNL d   1       5.263   0.077   0.024  0.00  0.00     0.143 A 
ATOM      5  C   UNL d   1       4.540  -1.224  -0.054  0.00  0.00     0.278 A 
ATOM      6  O   UNL d   1       5.132  -2.298  -0.137  0.00  0.00    -0.265 OA
ATOM      7  N   UNL d   1       3.181  -1.136  -0.073  0.00  0.00    -0.296 N 
ATOM      8  N   UNL d   1       6.667   0.080  -0.026  0.00  0.00    -0.377 N 
ATOM      9  C   UNL d   1       7.326   1.318  -0.477  0.00  0.00     0.095 C 
ATOM     10  C   UNL d   1       6.619   2.546   0.172  0.00  0.00     0.146 C 
ATOM     11  N   UNL d   1       5.164   2.430   0.088  0.00  0.00    -0.371 N 
ATOM     12  C   UNL d   1       7.289   1.404  -2.005  0.00  0.00     0.034 C 
ATOM     13  H   UNL d   1       2.681  -2.002  -0.185  0.00  0.00     0.171 HD
ATOM     14  H   UNL d   1       7.029  -0.798  -0.396  0.00  0.00     0.160 HD
ATOM     15  H   UNL d   1       4.603   3.214  -0.215  0.00  0.00     0.161 HD
ENDROOT
BRANCH   1  16
ATOM     16  N   UNL d   1       1.183   0.003  -0.237  0.00  0.00    -0.272 NA
ATOM     17  H   UNL d   1       0.760   0.909  -0.057  0.00  0.00     0.127 HD
ATOM     18  H   UNL d   1       0.714  -0.752   0.245  0.00  0.00     0.127 HD
ENDBRANCH   1  16
TORSDOF 1
