@<TRIPOS>MOLECULE
ligand
 24 25 0 0 0
SMALL
GASTEIGER

@<TRIPOS>ATOM
      1 N           1.1830    0.0032   -0.2373 N.pl3   1  UNL1       -0.3289
      2 C           2.5329    0.0533   -0.1217 C.ar    1  UNL1        0.1948
      3 N           3.1375    1.1942   -0.0617 N.ar    1  UNL1       -0.1994
      4 C           4.5054    1.2048    0.0390 C.ar    1  UNL1        0.1487
      5 C           5.2634    0.0766    0.0238 C.ar    1  UNL1        0.1329
      6 C           4.5396   -1.2236   -0.0545 C.ar    1  UNL1        0.2755
      7 O           5.1321   -2.2977   -0.1372 O.2     1  UNL1       -0.2657
      8 N           3.1810   -1.1363   -0.0733 N.ar    1  UNL1       -0.2937
      9 N           6.6673    0.0803   -0.0258 N.pl3   1  UNL1       -0.3329
     10 C           7.3260    1.3180   -0.4768 C.3     1  UNL1        0.0335
     11 H           8.3732    1.2980   -0.1552 H       1  UNL1        0.0510
     12 C           6.6190    2.5456    0.1716 C.3     1  UNL1        0.0286
     13 N           5.1642    2.4296    0.0884 N.pl3   1  UNL1       -0.3256
     14 C           7.2893    1.4042   -2.0053 C.3     1  UNL1       -0.0453
     15 H           0.7596    0.9089   -0.0566 H       1  UNL1        0.1451
     16 H           0.7136   -0.7523    0.2455 H       1  UNL1        0.1451
     17 H           2.6811   -2.0016   -0.1853 H       1  UNL1        0.1716
     18 H           7.0288   -0.7982   -0.3962 H       1  UNL1        0.1466
     19 H           6.9504    3.4805   -0.2916 H       1  UNL1        0.0480
     20 H           6.8917    2.5908    1.2328 H       1  UNL1        0.0480
     21 H           4.6030    3.2136   -0.2148 H       1  UNL1        0.1476
     22 H           6.2638    1.4244   -2.3919 H       1  UNL1        0.0248
     23 H           7.7905    0.5419   -2.4560 H       1  UNL1        0.0248
     24 H           7.7924    2.3123   -2.3526 H       1  UNL1        0.0248
@<TRIPOS>BOND
     1     1     2    1
     2     1    15    1
     3     1    16    1
     4     2     3   ar
     5     2     8   ar
     6     3     4   ar
     7     4     5   ar
     8     4    13    1
     9     5     6   ar
    10     5     9    1
    11     6     7    2
    12     6     8   ar
    13     8    17    1
    14     9    10    1
    15     9    18    1
    16    10    12    1
    17    10    14    1
    18    10    11    1
    19    12    13    1
    20    12    19    1
    21    12    20    1
    22    13    21    1
    23    14    22    1
    24    14    23    1
    25    14    24    1
