REMARK  3 active torsions:
REMARK  status: ('A' for Active; 'I' for Inactive)
REMARK    1  A    between atoms: N_1  and  CA_2 
REMARK    2  A    between atoms: CA_2  and  C_3 
REMARK    3  A    between atoms: C_3  and  OXT_5 
ROOT
ATOM      1  CA  GLY d   1       2.439   0.149  -0.014  0.00  0.00     0.376 C 
ENDROOT
BRANCH   1   2
ATOM      2  N   GLY d   1       0.963   0.038   0.110  0.00  0.00     0.088 N 
ATOM      3  H1  GLY d   1       0.667  -0.761  -0.460  0.00  0.00     0.313 HD
ATOM      4  H2  GLY d   1       0.549   0.847  -0.366  0.00  0.00     0.313 HD
ENDBRANCH   1   2
BRANCH   1   5
ATOM      5  C   GLY d   1       2.930   1.286   0.880  0.00  0.00     0.168 C 
ATOM      6  O   GLY d   1       3.995   1.868   0.753  0.00  0.00    -0.649 OA
BRANCH   5   7
ATOM      7  OXT GLY d   1       2.036   1.555   1.866  0.00  0.00    -0.775 OA
ATOM      8  HXT GLY d   1       1.272   0.945   1.718  0.00  0.00     0.167 HD
ENDBRANCH   5   7
ENDBRANCH   1   5
TORSDOF 3
