@<TRIPOS>MOLECULE
3OWW_GLY_A_89
 10 9 0 0 0
SMALL
GASTEIGER

@<TRIPOS>ATOM
      1 N           0.9631    0.0376    0.1101 N.3     1  GLY1       -0.3209
      2 CA          2.4391    0.1490   -0.0136 C.3     1  GLY1        0.0918
      3 C           2.9300    1.2864    0.8798 C.2     1  GLY1        0.3185
      4 O           3.9949    1.8676    0.7530 O.2     1  GLY1       -0.2496
      5 OXT         2.0359    1.5554    1.8662 O.3     1  GLY1       -0.4797
      6 H1          0.6669   -0.7615   -0.4604 H       1  GLY1        0.1187
      7 H2          0.5490    0.8467   -0.3660 H       1  GLY1        0.1187
      8 HA1         2.7094    0.3529   -1.0526 H       1  GLY1        0.0537
      9 HA2         2.9051   -0.7797    0.3273 H       1  GLY1        0.0537
     10 HXT         1.2716    0.9445    1.7176 H       1  GLY1        0.2951
@<TRIPOS>BOND
     1     1     2    1
     2     1     6    1
     3     1     7    1
     4     2     3    1
     5     2     8    1
     6     2     9    1
     7     3     4    2
     8     3     5    1
     9     5    10    1
