REMARK  22 active torsions:
REMARK  status: ('A' for Active; 'I' for Inactive)
REMARK    1  A    between atoms: C_1  and  O_2 
REMARK    2  A    between atoms: C_3  and  O_2 
REMARK    3  A    between atoms: C_4  and  N_32 
REMARK    4  A    between atoms: C_6  and  N_7 
REMARK    5  A    between atoms: C_8  and  O_31 
REMARK    6  A    between atoms: C_9  and  O_10 
REMARK    7  A    between atoms: O_10  and  C_11 
REMARK    8  A    between atoms: C_12  and  O_13 
REMARK    9  A    between atoms: C_14  and  O_15 
REMARK   10  A    between atoms: C_16  and  O_15 
REMARK   11  A    between atoms: C_17  and  N_18 
REMARK   12  A    between atoms: C_19  and  O_20 
REMARK   13  A    between atoms: C_21  and  O_22 
REMARK   14  A    between atoms: C_23  and  C_25 
REMARK   15  A    between atoms: C_25  and  N_26 
REMARK   16  A    between atoms: C_27  and  C_29 
REMARK   17  A    between atoms: C_29  and  O_30 
REMARK   18  A    between atoms: C_33  and  N_34 
REMARK   19  A    between atoms: C_35  and  O_36 
REMARK   20  A    between atoms: C_37  and  O_38 
REMARK   21  A    between atoms: C_39  and  C_41 
REMARK   22  A    between atoms: C_41  and  O_42 
ROOT
ATOM      1  C   UNL d   1       2.654  15.338   2.643  0.00  0.00     0.189 C 
ATOM      2  C   UNL d   1       2.174  15.569   4.121  0.00  0.00     0.251 C 
ATOM      3  C   UNL d   1       1.085  14.585   4.582  0.00  0.00     0.076 C 
ATOM      4  C   UNL d   1       1.486  13.139   4.280  0.00  0.00     0.251 C 
ATOM      5  C   UNL d   1       1.697  12.996   2.744  0.00  0.00     0.182 C 
ATOM      6  C   UNL d   1       2.947  13.830   2.378  0.00  0.00     0.186 C 
ENDROOT
BRANCH   6   7
ATOM      7  O   UNL d   1       3.504  13.489   1.104  0.00  0.00    -0.348 OA
BRANCH   7   8
ATOM      8  C   UNL d   1       2.920  14.018  -0.080  0.00  0.00     0.292 C 
ATOM      9  C   UNL d   1       3.915  13.718  -1.212  0.00  0.00     0.205 C 
ATOM     10  C   UNL d   1       3.034  13.968  -2.429  0.00  0.00     0.189 C 
ATOM     11  C   UNL d   1       1.704  13.333  -1.929  0.00  0.00     0.180 C 
ATOM     12  O   UNL d   1       1.698  13.405  -0.468  0.00  0.00    -0.348 OA
BRANCH   9  13
ATOM     13  O   UNL d   1       5.108  14.489  -1.135  0.00  0.00    -0.388 OA
ATOM     14  H   UNL d   1       5.113  14.864  -0.238  0.00  0.00     0.210 HD
ENDBRANCH   9  13
BRANCH  10  15
ATOM     15  O   UNL d   1       2.769  15.371  -2.648  0.00  0.00    -0.348 OA
BRANCH  15  16
ATOM     16  C   UNL d   1       3.858  16.196  -3.085  0.00  0.00     0.296 C 
ATOM     17  C   UNL d   1       3.354  17.669  -3.115  0.00  0.00     0.303 C 
ATOM     18  C   UNL d   1       4.558  18.587  -3.427  0.00  0.00     0.187 C 
ATOM     19  C   UNL d   1       5.276  18.157  -4.718  0.00  0.00     0.179 C 
ATOM     20  C   UNL d   1       5.534  16.624  -4.736  0.00  0.00     0.183 C 
ATOM     21  O   UNL d   1       4.352  15.864  -4.387  0.00  0.00    -0.349 OA
BRANCH  17  22
ATOM     22  N   UNL d   1       2.257  17.828  -4.107  0.00  0.00     0.090 N 
ATOM     23  H   UNL d   1       2.485  17.200  -4.889  0.00  0.00     0.313 HD
ATOM     24  H   UNL d   1       2.273  18.760  -4.511  0.00  0.00     0.313 HD
ENDBRANCH  17  22
BRANCH  18  25
ATOM     25  O   UNL d   1       5.462  18.656  -2.314  0.00  0.00    -0.391 OA
ATOM     26  H   UNL d   1       6.055  17.885  -2.311  0.00  0.00     0.210 HD
ENDBRANCH  18  25
BRANCH  19  27
ATOM     27  O   UNL d   1       4.499  18.550  -5.858  0.00  0.00    -0.390 OA
ATOM     28  H   UNL d   1       4.335  19.507  -5.801  0.00  0.00     0.210 HD
ENDBRANCH  19  27
BRANCH  20  29
ATOM     29  C   UNL d   1       6.034  16.203  -6.143  0.00  0.00     0.301 C 
BRANCH  29  30
ATOM     30  N   UNL d   1       6.468  14.809  -6.204  0.00  0.00     0.080 N 
ATOM     31  H   UNL d   1       7.205  14.643  -5.524  0.00  0.00     0.312 HD
ATOM     32  H   UNL d   1       6.847  14.607  -7.130  0.00  0.00     0.312 HD
ENDBRANCH  29  30
ENDBRANCH  20  29
ENDBRANCH  15  16
ENDBRANCH  10  15
BRANCH  11  33
ATOM     33  C   UNL d   1       1.494  11.864  -2.320  0.00  0.00     0.198 C 
BRANCH  33  34
ATOM     34  O   UNL d   1       2.545  11.025  -1.851  0.00  0.00    -0.398 OA
ATOM     35  H   UNL d   1       2.475  11.025  -0.875  0.00  0.00     0.209 HD
ENDBRANCH  33  34
ENDBRANCH  11  33
ENDBRANCH   7   8
ENDBRANCH   6   7
BRANCH   5  36
ATOM     36  O   UNL d   1       1.846  11.625   2.373  0.00  0.00    -0.391 OA
ATOM     37  H   UNL d   1       2.222  11.152   3.140  0.00  0.00     0.210 HD
ENDBRANCH   5  36
BRANCH   1  38
ATOM     38  O   UNL d   1       3.731  16.214   2.215  0.00  0.00    -0.349 OA
BRANCH  38  39
ATOM     39  C   UNL d   1       4.857  16.314   3.086  0.00  0.00     0.296 C 
ATOM     40  C   UNL d   1       5.793  17.471   2.620  0.00  0.00     0.303 C 
ATOM     41  C   UNL d   1       6.965  17.584   3.632  0.00  0.00     0.187 C 
ATOM     42  C   UNL d   1       7.670  16.225   3.829  0.00  0.00     0.180 C 
ATOM     43  C   UNL d   1       6.663  15.080   4.070  0.00  0.00     0.179 C 
ATOM     44  O   UNL d   1       5.589  15.099   3.107  0.00  0.00    -0.349 OA
BRANCH  40  45
ATOM     45  N   UNL d   1       6.327  17.259   1.245  0.00  0.00     0.090 N 
ATOM     46  H   UNL d   1       6.269  16.253   1.054  0.00  0.00     0.313 HD
ATOM     47  H   UNL d   1       5.657  17.671   0.588  0.00  0.00     0.313 HD
ENDBRANCH  40  45
BRANCH  41  48
ATOM     48  O   UNL d   1       6.561  18.090   4.910  0.00  0.00    -0.391 OA
ATOM     49  H   UNL d   1       5.599  18.206   4.955  0.00  0.00     0.210 HD
ENDBRANCH  41  48
BRANCH  42  50
ATOM     50  O   UNL d   1       8.466  15.904   2.678  0.00  0.00    -0.390 OA
ATOM     51  H   UNL d   1       8.143  16.447   1.929  0.00  0.00     0.210 HD
ENDBRANCH  42  50
BRANCH  43  52
ATOM     52  C   UNL d   1       6.127  15.040   5.515  0.00  0.00     0.198 C 
BRANCH  52  53
ATOM     53  O   UNL d   1       5.096  14.060   5.653  0.00  0.00    -0.398 OA
ATOM     54  H   UNL d   1       5.426  13.237   5.251  0.00  0.00     0.209 HD
ENDBRANCH  52  53
ENDBRANCH  43  52
ENDBRANCH  38  39
ENDBRANCH   1  38
BRANCH   4  55
ATOM     55  N   UNL d   1       0.535  12.168   4.827  0.00  0.00     0.085 N 
ATOM     56  H   UNL d   1      -0.070  11.809   4.093  0.00  0.00     0.313 HD
ATOM     57  H   UNL d   1      -0.066  12.599   5.532  0.00  0.00     0.313 HD
ENDBRANCH   4  55
BRANCH   2  58
ATOM     58  N   UNL d   1       1.682  16.941   4.332  0.00  0.00     0.085 N 
ATOM     59  H   UNL d   1       2.433  17.614   4.201  0.00  0.00     0.313 HD
ATOM     60  H   UNL d   1       1.349  17.048   5.291  0.00  0.00     0.313 HD
ENDBRANCH   2  58
TORSDOF 22
