@<TRIPOS>MOLECULE
3BNQ_PAR_C_101
 87 90 0 0 0
SMALL
GASTEIGER

@<TRIPOS>ATOM
      1 C           4.8567   16.3137    3.0858 C.3     1  UNL1        0.1776
      2 H           4.5022   16.5752    4.0816 H       1  UNL1        0.0927
      3 O           3.7314   16.2139    2.2151 O.3     1  UNL1       -0.3422
      4 C           2.6543   15.3379    2.6425 C.3     1  UNL1        0.1055
      5 H           1.8176   15.6164    1.9880 H       1  UNL1        0.0639
      6 C           2.1744   15.5687    4.1206 C.3     1  UNL1        0.0355
      7 H           3.0181   15.4212    4.8008 H       1  UNL1        0.0485
      8 C           1.0852   14.5846    4.5815 C.3     1  UNL1       -0.0175
      9 C           1.4858   13.1389    4.2802 C.3     1  UNL1        0.0351
     10 H           2.4343   12.9220    4.7916 H       1  UNL1        0.0485
     11 N           0.5355   12.1683    4.8265 N.3     1  UNL1       -0.3250
     12 C           1.6967   12.9956    2.7442 C.3     1  UNL1        0.0990
     13 H           0.8178   13.3671    2.2030 H       1  UNL1        0.0636
     14 C           2.9473   13.8299    2.3782 C.3     1  UNL1        0.1166
     15 H           3.7393   13.5120    3.0653 H       1  UNL1        0.0650
     16 O           3.5042   13.4895    1.1043 O.3     1  UNL1       -0.3402
     17 C           2.9200   14.0181   -0.0799 C.3     1  UNL1        0.1884
     18 H           2.7783   15.0943    0.0217 H       1  UNL1        0.0938
     19 C           3.9146   13.7177   -1.2121 C.3     1  UNL1        0.1345
     20 H           4.2249   12.6665   -1.1750 H       1  UNL1        0.0671
     21 O           5.1081   14.4893   -1.1354 O.3     1  UNL1       -0.3841
     22 C           3.0339   13.9677   -2.4288 C.3     1  UNL1        0.1205
     23 H           3.4067   13.5286   -3.3568 H       1  UNL1        0.0651
     24 O           2.7694   15.3710   -2.6482 O.3     1  UNL1       -0.3410
     25 C           3.8585   16.1959   -3.0849 C.3     1  UNL1        0.1776
     26 H           4.6741   16.1512   -2.3638 H       1  UNL1        0.0927
     27 C           3.3537   17.6689   -3.1145 C.3     1  UNL1        0.0853
     28 H           2.9466   17.9222   -2.1291 H       1  UNL1        0.0535
     29 N           2.2574   17.8280   -4.1068 N.3     1  UNL1       -0.3211
     30 C           4.5584   18.5873   -3.4266 C.3     1  UNL1        0.1033
     31 H           4.1837   19.6109   -3.5491 H       1  UNL1        0.0637
     32 O           5.4624   18.6559   -2.3142 O.3     1  UNL1       -0.3874
     33 C           5.2764   18.1568   -4.7177 C.3     1  UNL1        0.1100
     34 H           6.2395   18.6768   -4.8000 H       1  UNL1        0.0646
     35 O           4.4989   18.5497   -5.8581 O.3     1  UNL1       -0.3866
     36 C           5.5338   16.6242   -4.7364 C.3     1  UNL1        0.1022
     37 H           6.3152   16.3886   -4.0010 H       1  UNL1        0.0636
     38 O           4.3519   15.8643   -4.3866 O.3     1  UNL1       -0.3425
     39 C           6.0338   16.2033   -6.1430 C.3     1  UNL1        0.0222
     40 N           6.4679   14.8095   -6.2042 N.3     1  UNL1       -0.3276
     41 C           1.7038   13.3332   -1.9294 C.3     1  UNL1        0.1135
     42 H           0.8399   13.9125   -2.2747 H       1  UNL1        0.0647
     43 O           1.6985   13.4055   -0.4675 O.3     1  UNL1       -0.3405
     44 C           1.4944   11.8642   -2.3204 C.3     1  UNL1        0.0730
     45 O           2.5452   11.0255   -1.8515 O.3     1  UNL1       -0.3924
     46 O           1.8462   11.6251    2.3727 O.3     1  UNL1       -0.3876
     47 N           1.6822   16.9407    4.3324 N.3     1  UNL1       -0.3250
     48 C           5.7930   17.4714    2.6204 C.3     1  UNL1        0.0853
     49 H           5.2205   18.4071    2.6138 H       1  UNL1        0.0535
     50 N           6.3273   17.2592    1.2450 N.3     1  UNL1       -0.3211
     51 C           6.9646   17.5835    3.6320 C.3     1  UNL1        0.1033
     52 H           7.6906   18.3078    3.2413 H       1  UNL1        0.0637
     53 O           6.5609   18.0900    4.9101 O.3     1  UNL1       -0.3874
     54 C           7.6697   16.2250    3.8286 C.3     1  UNL1        0.1109
     55 H           8.3611   16.2786    4.6769 H       1  UNL1        0.0646
     56 O           8.4665   15.9041    2.6775 O.3     1  UNL1       -0.3865
     57 C           6.6627   15.0798    4.0697 C.3     1  UNL1        0.1129
     58 H           7.1662   14.1239    3.8861 H       1  UNL1        0.0647
     59 O           5.5888   15.0990    3.1070 O.3     1  UNL1       -0.3415
     60 C           6.1269   15.0404    5.5148 C.3     1  UNL1        0.0730
     61 O           5.0965   14.0602    5.6534 O.3     1  UNL1       -0.3924
     62 H           0.1298   14.8164    4.0923 H       1  UNL1        0.0297
     63 H           0.9239   14.7083    5.6618 H       1  UNL1        0.0297
     64 H          -0.0698   11.8090    4.0931 H       1  UNL1        0.1185
     65 H          -0.0663   12.5993    5.5319 H       1  UNL1        0.1185
     66 H           5.1128   14.8645   -0.2377 H       1  UNL1        0.2101
     67 H           2.4852   17.1996   -4.8893 H       1  UNL1        0.1187
     68 H           2.2731   18.7599   -4.5109 H       1  UNL1        0.1187
     69 H           6.0551   17.8846   -2.3112 H       1  UNL1        0.2100
     70 H           4.3349   19.5074   -5.8006 H       1  UNL1        0.2100
     71 H           6.8716   16.8394   -6.4384 H       1  UNL1        0.0448
     72 H           5.2318   16.3253   -6.8743 H       1  UNL1        0.0448
     73 H           7.2054   14.6435   -5.5245 H       1  UNL1        0.1183
     74 H           6.8466   14.6073   -7.1299 H       1  UNL1        0.1183
     75 H           0.5639   11.4839   -1.8810 H       1  UNL1        0.0584
     76 H           1.4268   11.7551   -3.4067 H       1  UNL1        0.0584
     77 H           2.4749   11.0252   -0.8748 H       1  UNL1        0.2095
     78 H           2.2217   11.1522    3.1399 H       1  UNL1        0.2100
     79 H           2.4327   17.6142    4.2013 H       1  UNL1        0.1185
     80 H           1.3493   17.0479    5.2912 H       1  UNL1        0.1185
     81 H           6.2690   16.2527    1.0537 H       1  UNL1        0.1187
     82 H           5.6567   17.6706    0.5878 H       1  UNL1        0.1187
     83 H           5.5986   18.2055    4.9554 H       1  UNL1        0.2100
     84 H           8.1428   16.4465    1.9287 H       1  UNL1        0.2100
     85 H           6.9307   14.7998    6.2175 H       1  UNL1        0.0584
     86 H           5.6881   15.9867    5.8305 H       1  UNL1        0.0584
     87 H           5.4259   13.2366    5.2513 H       1  UNL1        0.2095
@<TRIPOS>BOND
     1     1    48    1
     2     1    59    1
     3     1     3    1
     4     1     2    1
     5     4     6    1
     6     4     5    1
     7     4     3    1
     8     6     7    1
     9     6     8    1
    10     6    47    1
    11     8     9    1
    12     8    62    1
    13     8    63    1
    14     9    12    1
    15     9    11    1
    16     9    10    1
    17    11    64    1
    18    11    65    1
    19    12    13    1
    20    12    14    1
    21    12    46    1
    22    14     4    1
    23    14    16    1
    24    14    15    1
    25    16    17    1
    26    17    18    1
    27    17    19    1
    28    17    43    1
    29    19    22    1
    30    19    21    1
    31    19    20    1
    32    21    66    1
    33    22    23    1
    34    22    24    1
    35    22    41    1
    36    25    27    1
    37    25    38    1
    38    25    26    1
    39    25    24    1
    40    27    30    1
    41    27    29    1
    42    27    28    1
    43    29    67    1
    44    29    68    1
    45    30    32    1
    46    30    31    1
    47    32    69    1
    48    33    30    1
    49    33    34    1
    50    33    35    1
    51    35    70    1
    52    36    33    1
    53    36    37    1
    54    36    38    1
    55    36    39    1
    56    39    40    1
    57    39    71    1
    58    39    72    1
    59    40    73    1
    60    40    74    1
    61    41    43    1
    62    41    44    1
    63    41    42    1
    64    44    45    1
    65    44    75    1
    66    44    76    1
    67    45    77    1
    68    46    78    1
    69    47    79    1
    70    47    80    1
    71    48    51    1
    72    48    50    1
    73    48    49    1
    74    50    81    1
    75    50    82    1
    76    51    54    1
    77    51    53    1
    78    51    52    1
    79    53    83    1
    80    54    55    1
    81    54    56    1
    82    54    57    1
    83    56    84    1
    84    57    59    1
    85    57    60    1
    86    57    58    1
    87    60    61    1
    88    60    85    1
    89    60    86    1
    90    61    87    1
