REMARK  2 active torsions:
REMARK  status: ('A' for Active; 'I' for Inactive)
REMARK    1  A    between atoms: O_2  and  C_3 
REMARK    2  A    between atoms: C_5  and  N_13 
ROOT
ATOM      1  C   UNL d   1       3.006   0.011   1.189  0.00  0.00     0.198 A 
ATOM      2  N   UNL d   1       3.271   1.171   1.818  0.00  0.00    -0.192 NA
ATOM      3  C   UNL d   1       3.898   1.131   3.006  0.00  0.00     0.203 A 
ATOM      4  N   UNL d   1       4.331   0.044   3.645  0.00  0.00    -0.196 NA
ATOM      5  C   UNL d   1       4.066  -1.103   3.000  0.00  0.00     0.185 A 
ATOM      6  C   UNL d   1       3.417  -1.153   1.784  0.00  0.00     0.135 A 
ATOM      7  N   UNL d   1       3.345  -2.478   1.471  0.00  0.00    -0.344 N 
ATOM      8  H   UNL d   1       2.924  -2.873   0.641  0.00  0.00     0.167 HD
ATOM      9  C   UNL d   1       3.930  -3.170   2.497  0.00  0.00     0.210 A 
ATOM     10  N   UNL d   1       4.383  -2.364   3.432  0.00  0.00    -0.222 NA
ENDROOT
BRANCH   3  11
ATOM     11  N   UNL d   1       4.154   2.352   3.602  0.00  0.00    -0.270 NA
ATOM     12  H   UNL d   1       4.210   3.072   2.896  0.00  0.00     0.127 HD
ATOM     13  H   UNL d   1       4.939   2.260   4.233  0.00  0.00     0.127 HD
ENDBRANCH   3  11
BRANCH   1  14
ATOM     14  O   UNL d   1       2.371  -0.011  -0.033  0.00  0.00    -0.338 OA
ATOM     15  C   UNL d   1       1.615   1.176  -0.259  0.00  0.00     0.211 C 
ENDBRANCH   1  14
TORSDOF 2
