@<TRIPOS>MOLECULE
3FO6_6GO_A_91
 19 20 0 0 0
SMALL
GASTEIGER

@<TRIPOS>ATOM
      1 C           1.6154    1.1760   -0.2594 C.3     1  UNL1        0.0805
      2 O           2.3708   -0.0111   -0.0325 O.3     1  UNL1       -0.4781
      3 C           3.0062    0.0105    1.1891 C.ar    1  UNL1        0.2453
      4 N           3.2705    1.1712    1.8183 N.ar    1  UNL1       -0.1778
      5 C           3.8976    1.1311    3.0057 C.ar    1  UNL1        0.2177
      6 N           4.3311    0.0437    3.6449 N.ar    1  UNL1       -0.1932
      7 C           4.0655   -1.1032    3.0002 C.ar    1  UNL1        0.1862
      8 C           3.4172   -1.1535    1.7842 C.ar    1  UNL1        0.1475
      9 N           3.3447   -2.4784    1.4710 N.ar    1  UNL1       -0.3389
     10 H           2.9235   -2.8727    0.6409 H       1  UNL1        0.1670
     11 C           3.9301   -3.1703    2.4969 C.ar    1  UNL1        0.0963
     12 N           4.3833   -2.3641    3.4323 N.ar    1  UNL1       -0.2163
     13 N           4.1545    2.3523    3.6016 N.pl3   1  UNL1       -0.3273
     14 H           1.1353    1.0837   -1.2387 H       1  UNL1        0.0660
     15 H           2.2526    2.0668   -0.2869 H       1  UNL1        0.0660
     16 H           0.8262    1.2817    0.4933 H       1  UNL1        0.0660
     17 H           3.9959   -4.2512    2.5064 H       1  UNL1        0.1027
     18 H           4.2098    3.0723    2.8958 H       1  UNL1        0.1452
     19 H           4.9390    2.2596    4.2333 H       1  UNL1        0.1452
@<TRIPOS>BOND
     1     1     2    1
     2     1    14    1
     3     1    15    1
     4     1    16    1
     5     2     3    1
     6     3     4   ar
     7     3     8   ar
     8     4     5   ar
     9     5     6   ar
    10     5    13    1
    11     6     7   ar
    12     7     8   ar
    13     7    12   ar
    14     8     9   ar
    15     9    10    1
    16     9    11   ar
    17    11    12   ar
    18    11    17    1
    19    13    18    1
    20    13    19    1
