3FO6_6GO_A_91
 OpenBabel03221817303D

 19 20  0  0  0  0  0  0  0  0999 V2000
    1.6154    1.1760   -0.2594 C   0  0  0  0  0  0  0  0  0  0  0  0
    2.3708   -0.0111   -0.0325 O   0  0  0  0  0  0  0  0  0  0  0  0
    3.0062    0.0105    1.1891 C   0  0  0  0  0  0  0  0  0  0  0  0
    3.2705    1.1712    1.8183 N   0  0  0  0  0  0  0  0  0  0  0  0
    3.8976    1.1311    3.0057 C   0  0  0  0  0  0  0  0  0  0  0  0
    4.3311    0.0437    3.6449 N   0  0  0  0  0  0  0  0  0  0  0  0
    4.0655   -1.1032    3.0002 C   0  0  0  0  0  0  0  0  0  0  0  0
    3.4172   -1.1535    1.7842 C   0  0  0  0  0  0  0  0  0  0  0  0
    3.3447   -2.4784    1.4710 N   0  0  0  0  0  0  0  0  0  0  0  0
    2.9235   -2.8727    0.6409 H   0  0  0  0  0  0  0  0  0  0  0  0
    3.9301   -3.1703    2.4969 C   0  0  0  0  0  0  0  0  0  0  0  0
    4.3833   -2.3641    3.4323 N   0  0  0  0  0  0  0  0  0  0  0  0
    4.1545    2.3523    3.6016 N   0  0  0  0  0  0  0  0  0  0  0  0
    1.1353    1.0837   -1.2387 H   0  0  0  0  0  0  0  0  0  0  0  0
    2.2526    2.0668   -0.2869 H   0  0  0  0  0  0  0  0  0  0  0  0
    0.8262    1.2817    0.4933 H   0  0  0  0  0  0  0  0  0  0  0  0
    3.9959   -4.2512    2.5064 H   0  0  0  0  0  0  0  0  0  0  0  0
    4.2098    3.0723    2.8958 H   0  0  0  0  0  0  0  0  0  0  0  0
    4.9390    2.2596    4.2333 H   0  0  0  0  0  0  0  0  0  0  0  0
  1  2  1  0  0  0  0
  1 14  1  0  0  0  0
  1 15  1  0  0  0  0
  1 16  1  0  0  0  0
  2  3  1  0  0  0  0
  3  4  2  0  0  0  0
  3  8  1  0  0  0  0
  4  5  1  0  0  0  0
  5  6  2  0  0  0  0
  5 13  1  0  0  0  0
  6  7  1  0  0  0  0
  7  8  2  0  0  0  0
  7 12  1  0  0  0  0
  8  9  1  0  0  0  0
  9 10  1  0  0  0  0
  9 11  1  0  0  0  0
 11 12  2  0  0  0  0
 11 17  1  0  0  0  0
 13 18  1  0  0  0  0
 13 19  1  0  0  0  0
M  END
$$$$
