REMARK  16 active torsions:
REMARK  status: ('A' for Active; 'I' for Inactive)
REMARK    1  A    between atoms: O_1  and  C_2 
REMARK    2  A    between atoms: C_2  and  C_3 
REMARK    3  A    between atoms: C_5  and  O_6 
REMARK    4  A    between atoms: C_7  and  O_6 
REMARK    5  A    between atoms: C_8  and  O_9 
REMARK    6  A    between atoms: C_10  and  N_11 
REMARK    7  A    between atoms: C_13  and  N_14 
REMARK    8  A    between atoms: C_15  and  O_16 
REMARK    9  A    between atoms: O_16  and  C_17 
REMARK   10  A    between atoms: C_19  and  C_20 
REMARK   11  A    between atoms: C_20  and  N_21 
REMARK   12  A    between atoms: C_22  and  O_23 
REMARK   13  A    between atoms: C_24  and  O_25 
REMARK   14  A    between atoms: C_26  and  N_27 
REMARK   15  A    between atoms: C_28  and  O_29 
REMARK   16  A    between atoms: C_30  and  O_31 
ROOT
ATOM      1  C   UNL d   1       2.479   5.975   2.062  0.00  0.00     0.186 C 
ATOM      2  C   UNL d   1       3.996   5.991   2.338  0.00  0.00     0.182 C 
ATOM      3  C   UNL d   1       4.830   6.383   1.115  0.00  0.00     0.251 C 
ATOM      4  C   UNL d   1       4.383   7.765   0.643  0.00  0.00     0.076 C 
ATOM      5  C   UNL d   1       2.970   7.650   0.076  0.00  0.00     0.251 C 
ATOM      6  C   UNL d   1       1.918   7.059   1.078  0.00  0.00     0.189 C 
ENDROOT
BRANCH   6   7
ATOM      7  O   UNL d   1       0.690   6.614   0.388  0.00  0.00    -0.349 OA
BRANCH   7   8
ATOM      8  C   UNL d   1       0.873   5.643  -0.662  0.00  0.00     0.296 C 
ATOM      9  O   UNL d   1       1.240   4.378  -0.124  0.00  0.00    -0.349 OA
ATOM     10  C   UNL d   1       0.183   3.778   0.652  0.00  0.00     0.183 C 
ATOM     11  C   UNL d   1      -0.968   3.406  -0.285  0.00  0.00     0.179 C 
ATOM     12  C   UNL d   1      -1.485   4.693  -0.956  0.00  0.00     0.187 C 
ATOM     13  C   UNL d   1      -0.335   5.457  -1.631  0.00  0.00     0.303 C 
BRANCH  10  14
ATOM     14  C   UNL d   1       0.798   2.599   1.430  0.00  0.00     0.301 C 
BRANCH  14  15
ATOM     15  N   UNL d   1       1.590   1.711   0.575  0.00  0.00     0.080 N 
ATOM     16  H   UNL d   1       2.044   2.292  -0.136  0.00  0.00     0.312 HD
ATOM     17  H   UNL d   1       2.357   1.326   1.127  0.00  0.00     0.312 HD
ENDBRANCH  14  15
ENDBRANCH  10  14
BRANCH  11  18
ATOM     18  O   UNL d   1      -2.064   2.768   0.380  0.00  0.00    -0.390 OA
ATOM     19  H   UNL d   1      -2.325   3.311   1.140  0.00  0.00     0.210 HD
ENDBRANCH  11  18
BRANCH  12  20
ATOM     20  O   UNL d   1      -2.484   4.355  -1.935  0.00  0.00    -0.391 OA
ATOM     21  H   UNL d   1      -2.920   3.542  -1.609  0.00  0.00     0.210 HD
ENDBRANCH  12  20
BRANCH  13  22
ATOM     22  N   UNL d   1      -0.799   6.691  -2.299  0.00  0.00     0.090 N 
ATOM     23  H   UNL d   1      -1.085   7.368  -1.593  0.00  0.00     0.313 HD
ATOM     24  H   UNL d   1      -1.647   6.445  -2.821  0.00  0.00     0.313 HD
ENDBRANCH  13  22
ENDBRANCH   7   8
ENDBRANCH   6   7
BRANCH   5  25
ATOM     25  N   UNL d   1       2.522   8.941  -0.468  0.00  0.00     0.085 N 
ATOM     26  H   UNL d   1       3.169   9.252  -1.192  0.00  0.00     0.313 HD
ATOM     27  H   UNL d   1       2.531   9.662   0.251  0.00  0.00     0.313 HD
ENDBRANCH   5  25
BRANCH   1  28
ATOM     28  O   UNL d   1       1.666   5.795   3.262  0.00  0.00    -0.348 OA
BRANCH  28  29
ATOM     29  C   UNL d   1       1.860   6.698   4.359  0.00  0.00     0.292 C 
ATOM     30  O   UNL d   1       3.160   6.584   4.932  0.00  0.00    -0.348 OA
ATOM     31  C   UNL d   1       3.066   7.069   6.281  0.00  0.00     0.179 C 
ATOM     32  C   UNL d   1       1.708   6.603   6.796  0.00  0.00     0.182 C 
ATOM     33  C   UNL d   1       0.906   6.333   5.517  0.00  0.00     0.204 C 
BRANCH  31  34
ATOM     34  C   UNL d   1       4.250   6.560   7.108  0.00  0.00     0.198 C 
BRANCH  34  35
ATOM     35  O   UNL d   1       4.242   5.136   7.207  0.00  0.00    -0.398 OA
ATOM     36  H   UNL d   1       5.046   4.883   7.690  0.00  0.00     0.209 HD
ENDBRANCH  34  35
ENDBRANCH  31  34
BRANCH  32  37
ATOM     37  O   UNL d   1       1.124   7.609   7.621  0.00  0.00    -0.390 OA
ATOM     38  H   UNL d   1       0.160   7.566   7.451  0.00  0.00     0.210 HD
ENDBRANCH  32  37
BRANCH  33  39
ATOM     39  O   UNL d   1      -0.319   7.073   5.516  0.00  0.00    -0.388 OA
ATOM     40  H   UNL d   1      -0.741   6.906   4.655  0.00  0.00     0.210 HD
ENDBRANCH  33  39
ENDBRANCH  28  29
ENDBRANCH   1  28
BRANCH   2  41
ATOM     41  O   UNL d   1       4.401   4.680   2.777  0.00  0.00    -0.391 OA
ATOM     42  H   UNL d   1       3.792   4.441   3.503  0.00  0.00     0.210 HD
ENDBRANCH   2  41
BRANCH   3  43
ATOM     43  N   UNL d   1       6.263   6.397   1.454  0.00  0.00     0.085 N 
ATOM     44  H   UNL d   1       6.472   5.469   1.843  0.00  0.00     0.313 HD
ATOM     45  H   UNL d   1       6.423   7.032   2.235  0.00  0.00     0.313 HD
ENDBRANCH   3  43
TORSDOF 16
