2ET5_RIO_A_54
 OpenBabel03221817213D

 65 67  0  0  1  0  0  0  0  0999 V2000
    4.2421    5.1363    7.2073 O   0  0  0  0  0  0  0  0  0  0  0  0
    4.2499    6.5597    7.1084 C   0  0  0  0  0  0  0  0  0  0  0  0
    3.0661    7.0685    6.2806 C   0  0  1  0  0  0  0  0  0  0  0  0
    3.1193    8.1653    6.2466 H   0  0  0  0  0  0  0  0  0  0  0  0
    3.1599    6.5842    4.9324 O   0  0  0  0  0  0  0  0  0  0  0  0
    1.8597    6.6983    4.3591 C   0  0  1  0  0  0  0  0  0  0  0  0
    1.6917    7.7285    4.0207 H   0  0  0  0  0  0  0  0  0  0  0  0
    1.6664    5.7953    3.2620 O   0  0  0  0  0  0  0  0  0  0  0  0
    2.4787    5.9746    2.0615 C   0  0  2  0  0  0  0  0  0  0  0  0
    2.3425    5.0160    1.5810 H   0  0  0  0  0  0  0  0  0  0  0  0
    3.9956    5.9914    2.3383 C   0  0  1  0  0  0  0  0  0  0  0  0
    4.2641    6.6888    3.1283 H   0  0  0  0  0  0  0  0  0  0  0  0
    4.4007    4.6803    2.7770 O   0  0  0  0  0  0  0  0  0  0  0  0
    4.8303    6.3834    1.1150 C   0  0  2  0  0  0  0  0  0  0  0  0
    4.7000    5.6388    0.3190 H   0  0  0  0  0  0  0  0  0  0  0  0
    6.2629    6.3966    1.4537 N   0  0  0  0  0  0  0  0  0  0  0  0
    4.3828    7.7648    0.6431 C   0  0  0  0  0  0  0  0  0  0  0  0
    2.9704    7.6500    0.0763 C   0  0  2  0  0  0  0  0  0  0  0  0
    3.0807    6.9993   -0.7897 H   0  0  0  0  0  0  0  0  0  0  0  0
    2.5220    8.9406   -0.4679 N   0  0  0  0  0  0  0  0  0  0  0  0
    1.9181    7.0585    1.0783 C   0  0  1  0  0  0  0  0  0  0  0  0
    1.5692    7.8863    1.7094 H   0  0  0  0  0  0  0  0  0  0  0  0
    0.6899    6.6138    0.3876 O   0  0  0  0  0  0  0  0  0  0  0  0
    0.8726    5.6430   -0.6621 C   0  0  1  0  0  0  0  0  0  0  0  0
    1.6816    5.9518   -1.3236 H   0  0  0  0  0  0  0  0  0  0  0  0
    1.2396    4.3776   -0.1243 O   0  0  0  0  0  0  0  0  0  0  0  0
    0.1828    3.7778    0.6519 C   0  0  2  0  0  0  0  0  0  0  0  0
   -0.1790    4.4900    1.4059 H   0  0  0  0  0  0  0  0  0  0  0  0
    0.7978    2.5994    1.4301 C   0  0  0  0  0  0  0  0  0  0  0  0
    1.5898    1.7114    0.5749 N   0  0  0  0  0  0  0  0  0  0  0  0
   -0.9676    3.4061   -0.2855 C   0  0  1  0  0  0  0  0  0  0  0  0
   -0.6190    2.7165   -1.0644 H   0  0  0  0  0  0  0  0  0  0  0  0
   -2.0640    2.7675    0.3796 O   0  0  0  0  0  0  0  0  0  0  0  0
   -1.4851    4.6932   -0.9555 C   0  0  2  0  0  0  0  0  0  0  0  0
   -1.9881    5.3257   -0.2141 H   0  0  0  0  0  0  0  0  0  0  0  0
   -2.4837    4.3546   -1.9353 O   0  0  0  0  0  0  0  0  0  0  0  0
   -0.3347    5.4575   -1.6314 C   0  0  1  0  0  0  0  0  0  0  0  0
    0.0211    4.8087   -2.4450 H   0  0  0  0  0  0  0  0  0  0  0  0
   -0.7995    6.6906   -2.2993 N   0  0  0  0  0  0  0  0  0  0  0  0
    0.9060    6.3331    5.5171 C   0  0  2  0  0  0  0  0  0  0  0  0
    0.6474    5.2695    5.4724 H   0  0  0  0  0  0  0  0  0  0  0  0
   -0.3190    7.0734    5.5155 O   0  0  0  0  0  0  0  0  0  0  0  0
    1.7082    6.6030    6.7964 C   0  0  2  0  0  0  0  0  0  0  0  0
    1.7741    5.6830    7.3863 H   0  0  0  0  0  0  0  0  0  0  0  0
    1.1243    7.6095    7.6213 O   0  0  0  0  0  0  0  0  0  0  0  0
    5.0463    4.8834    7.6904 H   0  0  0  0  0  0  0  0  0  0  0  0
    5.1904    6.8530    6.6301 H   0  0  0  0  0  0  0  0  0  0  0  0
    4.2198    6.9733    8.1201 H   0  0  0  0  0  0  0  0  0  0  0  0
    3.7924    4.4409    3.5034 H   0  0  0  0  0  0  0  0  0  0  0  0
    6.4718    5.4694    1.8430 H   0  0  0  0  0  0  0  0  0  0  0  0
    6.4231    7.0318    2.2352 H   0  0  0  0  0  0  0  0  0  0  0  0
    5.0630    8.1265   -0.1394 H   0  0  0  0  0  0  0  0  0  0  0  0
    4.4178    8.4938    1.4623 H   0  0  0  0  0  0  0  0  0  0  0  0
    3.1691    9.2523   -1.1921 H   0  0  0  0  0  0  0  0  0  0  0  0
    2.5312    9.6622    0.2513 H   0  0  0  0  0  0  0  0  0  0  0  0
    0.0322    2.0334    1.9680 H   0  0  0  0  0  0  0  0  0  0  0  0
    1.4793    3.0119    2.1853 H   0  0  0  0  0  0  0  0  0  0  0  0
    2.0436    2.2924   -0.1361 H   0  0  0  0  0  0  0  0  0  0  0  0
    2.3569    1.3259    1.1267 H   0  0  0  0  0  0  0  0  0  0  0  0
   -2.3255    3.3105    1.1400 H   0  0  0  0  0  0  0  0  0  0  0  0
   -2.9195    3.5419   -1.6095 H   0  0  0  0  0  0  0  0  0  0  0  0
   -1.0852    7.3678   -1.5934 H   0  0  0  0  0  0  0  0  0  0  0  0
   -1.6467    6.4451   -2.8209 H   0  0  0  0  0  0  0  0  0  0  0  0
   -0.7405    6.9057    4.6548 H   0  0  0  0  0  0  0  0  0  0  0  0
    0.1603    7.5660    7.4509 H   0  0  0  0  0  0  0  0  0  0  0  0
  1  2  1  0  0  0  0
  1 46  1  0  0  0  0
  2  3  1  0  0  0  0
  2 47  1  0  0  0  0
  2 48  1  0  0  0  0
  3  4  1  0  0  0  0
  3  5  1  0  0  0  0
  3 43  1  1  0  0  0
  5  6  1  0  0  0  0
  6 40  1  1  0  0  0
  6  8  1  0  0  0  0
  6  7  1  0  0  0  0
  9 11  1  1  0  0  0
  9 10  1  0  0  0  0
  9  8  1  0  0  0  0
 11 12  1  0  0  0  0
 11 13  1  0  0  0  0
 11 14  1  6  0  0  0
 13 49  1  0  0  0  0
 14 15  1  6  0  0  0
 14 16  1  0  0  0  0
 14 17  1  0  0  0  0
 16 50  1  0  0  0  0
 16 51  1  0  0  0  0
 17 18  1  0  0  0  0
 17 52  1  0  0  0  0
 17 53  1  0  0  0  0
 18 19  1  0  0  0  0
 18 20  1  0  0  0  0
 18 21  1  1  0  0  0
 20 54  1  0  0  0  0
 20 55  1  0  0  0  0
 21  9  1  1  0  0  0
 21 23  1  0  0  0  0
 21 22  1  0  0  0  0
 23 24  1  0  0  0  0
 24 25  1  0  0  0  0
 24 26  1  0  0  0  0
 24 37  1  6  0  0  0
 26 27  1  0  0  0  0
 27 28  1  0  0  0  0
 27 29  1  0  0  0  0
 27 31  1  6  0  0  0
 29 30  1  0  0  0  0
 29 56  1  0  0  0  0
 29 57  1  0  0  0  0
 30 58  1  0  0  0  0
 30 59  1  0  0  0  0
 31 33  1  0  0  0  0
 31 32  1  6  0  0  0
 33 60  1  0  0  0  0
 34 31  1  1  0  0  0
 34 35  1  0  0  0  0
 34 36  1  0  0  0  0
 36 61  1  0  0  0  0
 37 34  1  1  0  0  0
 37 39  1  0  0  0  0
 37 38  1  0  0  0  0
 39 62  1  0  0  0  0
 39 63  1  0  0  0  0
 40 41  1  0  0  0  0
 40 42  1  0  0  0  0
 40 43  1  1  0  0  0
 42 64  1  0  0  0  0
 43 44  1  1  0  0  0
 43 45  1  0  0  0  0
 45 65  1  0  0  0  0
M  END
$$$$
