@<TRIPOS>MOLECULE
2ET5_RIO_A_54
 65 67 0 0 0
SMALL
GASTEIGER

@<TRIPOS>ATOM
      1 O           4.2421    5.1363    7.2073 O.3     1  UNL1       -0.3924
      2 C           4.2499    6.5597    7.1084 C.3     1  UNL1        0.0730
      3 C           3.0661    7.0685    6.2806 C.3     1  UNL1        0.1131
      4 H           3.1193    8.1653    6.2466 H       1  UNL1        0.0647
      5 O           3.1599    6.5842    4.9324 O.3     1  UNL1       -0.3405
      6 C           1.8597    6.6983    4.3591 C.3     1  UNL1        0.1884
      7 H           1.6917    7.7285    4.0207 H       1  UNL1        0.0938
      8 O           1.6664    5.7953    3.2620 O.3     1  UNL1       -0.3402
      9 C           2.4787    5.9746    2.0615 C.3     1  UNL1        0.1166
     10 H           2.3425    5.0160    1.5810 H       1  UNL1        0.0650
     11 C           3.9956    5.9914    2.3383 C.3     1  UNL1        0.0990
     12 H           4.2641    6.6888    3.1283 H       1  UNL1        0.0636
     13 O           4.4007    4.6803    2.7770 O.3     1  UNL1       -0.3876
     14 C           4.8303    6.3834    1.1150 C.3     1  UNL1        0.0351
     15 H           4.7000    5.6388    0.3190 H       1  UNL1        0.0485
     16 N           6.2629    6.3966    1.4537 N.3     1  UNL1       -0.3250
     17 C           4.3828    7.7648    0.6431 C.3     1  UNL1       -0.0175
     18 C           2.9704    7.6500    0.0763 C.3     1  UNL1        0.0355
     19 H           3.0807    6.9993   -0.7897 H       1  UNL1        0.0485
     20 N           2.5220    8.9406   -0.4679 N.3     1  UNL1       -0.3250
     21 C           1.9181    7.0585    1.0783 C.3     1  UNL1        0.1055
     22 H           1.5692    7.8863    1.7094 H       1  UNL1        0.0639
     23 O           0.6899    6.6138    0.3876 O.3     1  UNL1       -0.3422
     24 C           0.8726    5.6430   -0.6621 C.3     1  UNL1        0.1776
     25 H           1.6816    5.9518   -1.3236 H       1  UNL1        0.0927
     26 O           1.2396    4.3776   -0.1243 O.3     1  UNL1       -0.3425
     27 C           0.1828    3.7778    0.6519 C.3     1  UNL1        0.1022
     28 H          -0.1790    4.4900    1.4059 H       1  UNL1        0.0636
     29 C           0.7978    2.5994    1.4301 C.3     1  UNL1        0.0222
     30 N           1.5898    1.7114    0.5749 N.3     1  UNL1       -0.3276
     31 C          -0.9676    3.4061   -0.2855 C.3     1  UNL1        0.1100
     32 H          -0.6190    2.7165   -1.0644 H       1  UNL1        0.0646
     33 O          -2.0640    2.7675    0.3796 O.3     1  UNL1       -0.3866
     34 C          -1.4851    4.6932   -0.9555 C.3     1  UNL1        0.1033
     35 H          -1.9881    5.3257   -0.2141 H       1  UNL1        0.0637
     36 O          -2.4837    4.3546   -1.9353 O.3     1  UNL1       -0.3874
     37 C          -0.3347    5.4575   -1.6314 C.3     1  UNL1        0.0853
     38 H           0.0211    4.8087   -2.4450 H       1  UNL1        0.0535
     39 N          -0.7995    6.6906   -2.2993 N.3     1  UNL1       -0.3211
     40 C           0.9060    6.3331    5.5171 C.3     1  UNL1        0.1341
     41 H           0.6474    5.2695    5.4724 H       1  UNL1        0.0671
     42 O          -0.3190    7.0734    5.5155 O.3     1  UNL1       -0.3841
     43 C           1.7082    6.6030    6.7964 C.3     1  UNL1        0.1141
     44 H           1.7741    5.6830    7.3863 H       1  UNL1        0.0648
     45 O           1.1243    7.6095    7.6213 O.3     1  UNL1       -0.3864
     46 H           5.0463    4.8834    7.6904 H       1  UNL1        0.2095
     47 H           5.1904    6.8530    6.6301 H       1  UNL1        0.0584
     48 H           4.2198    6.9733    8.1201 H       1  UNL1        0.0584
     49 H           3.7924    4.4409    3.5034 H       1  UNL1        0.2100
     50 H           6.4718    5.4694    1.8430 H       1  UNL1        0.1185
     51 H           6.4231    7.0318    2.2352 H       1  UNL1        0.1185
     52 H           5.0630    8.1265   -0.1394 H       1  UNL1        0.0297
     53 H           4.4178    8.4938    1.4623 H       1  UNL1        0.0297
     54 H           3.1691    9.2523   -1.1921 H       1  UNL1        0.1185
     55 H           2.5312    9.6622    0.2513 H       1  UNL1        0.1185
     56 H           0.0322    2.0334    1.9680 H       1  UNL1        0.0448
     57 H           1.4793    3.0119    2.1853 H       1  UNL1        0.0448
     58 H           2.0436    2.2924   -0.1361 H       1  UNL1        0.1183
     59 H           2.3569    1.3259    1.1267 H       1  UNL1        0.1183
     60 H          -2.3255    3.3105    1.1400 H       1  UNL1        0.2100
     61 H          -2.9195    3.5419   -1.6095 H       1  UNL1        0.2100
     62 H          -1.0852    7.3678   -1.5934 H       1  UNL1        0.1187
     63 H          -1.6467    6.4451   -2.8209 H       1  UNL1        0.1187
     64 H          -0.7405    6.9057    4.6548 H       1  UNL1        0.2101
     65 H           0.1603    7.5660    7.4509 H       1  UNL1        0.2100
@<TRIPOS>BOND
     1     1     2    1
     2     1    46    1
     3     2     3    1
     4     2    47    1
     5     2    48    1
     6     3     4    1
     7     3     5    1
     8     3    43    1
     9     5     6    1
    10     6    40    1
    11     6     8    1
    12     6     7    1
    13     9    11    1
    14     9    10    1
    15     9     8    1
    16    11    12    1
    17    11    13    1
    18    11    14    1
    19    13    49    1
    20    14    15    1
    21    14    16    1
    22    14    17    1
    23    16    50    1
    24    16    51    1
    25    17    18    1
    26    17    52    1
    27    17    53    1
    28    18    19    1
    29    18    20    1
    30    18    21    1
    31    20    54    1
    32    20    55    1
    33    21     9    1
    34    21    23    1
    35    21    22    1
    36    23    24    1
    37    24    25    1
    38    24    26    1
    39    24    37    1
    40    26    27    1
    41    27    28    1
    42    27    29    1
    43    27    31    1
    44    29    30    1
    45    29    56    1
    46    29    57    1
    47    30    58    1
    48    30    59    1
    49    31    33    1
    50    31    32    1
    51    33    60    1
    52    34    31    1
    53    34    35    1
    54    34    36    1
    55    36    61    1
    56    37    34    1
    57    37    39    1
    58    37    38    1
    59    39    62    1
    60    39    63    1
    61    40    41    1
    62    40    42    1
    63    40    43    1
    64    42    64    1
    65    43    44    1
    66    43    45    1
    67    45    65    1
