@<TRIPOS>MOLECULE
3D2V_PYI_A_84
 48 49 0 0 0
SMALL
GASTEIGER

@<TRIPOS>ATOM
      1 C           6.8239    3.3807   -4.5723 C.3     1  UNL1       -0.0046
      2 C           7.0560    2.6936   -3.2641 C.ar    1  UNL1        0.1280
      3 N           7.7939    1.5721   -3.2764 N.ar    1  UNL1       -0.2400
      4 C           7.7742    0.8291   -2.1625 C.ar    1  UNL1        0.0421
      5 C           7.0292    1.1473   -1.0469 C.ar    1  UNL1        0.0747
      6 C           6.8016    0.2225    0.1001 C.3     1  UNL1        0.1806
      7 N           7.2839   -1.1742   -0.1351 N.ar    1  UNL1       -0.1968
      8 C           8.4958   -1.4945    0.3830 C.ar    1  UNL1        0.1718
      9 C           8.9612   -2.7932    0.3867 C.ar    1  UNL1        0.0024
     10 C           8.1515   -3.7935   -0.1178 C.ar    1  UNL1       -0.0470
     11 C           6.9053   -3.4838   -0.6796 C.ar    1  UNL1        0.0214
     12 C           6.0236   -4.6539   -1.0951 C.3     1  UNL1        0.0023
     13 C           5.7343   -4.8372   -2.5839 C.3     1  UNL1        0.0633
     14 O           6.9160   -4.7710   -3.3566 O.3     1  UNL1       -0.2861
     15 P           7.7587   -6.1229   -3.5640 P.3     1  UNL1        0.4834
     16 O           8.2335   -6.7568   -2.3019 O.2     1  UNL1       -0.2269
     17 O           6.7090   -7.0569   -4.3365 O.3     1  UNL1       -0.3022
     18 O           8.8318   -5.7839   -4.6708 O.3     1  UNL1       -0.1862
     19 P          10.2349   -5.0994   -4.4579 P.3     1  UNL1        0.4808
     20 O          11.3547   -5.9443   -3.9620 O.2     1  UNL1       -0.2271
     21 O          10.4816   -4.4051   -5.8695 O.3     1  UNL1       -0.3023
     22 O           9.9987   -3.7970   -3.5558 O.3     1  UNL1       -0.3023
     23 C           6.4995   -2.1259   -0.7431 C.ar    1  UNL1        0.1843
     24 C           5.2421   -1.7316   -1.4738 C.3     1  UNL1        0.0210
     25 C           6.3954    2.3750   -1.0943 C.ar    1  UNL1        0.1289
     26 N           5.6723    2.8684   -0.0073 N.pl3   1  UNL1       -0.3427
     27 N           6.3778    3.1369   -2.1908 N.ar    1  UNL1       -0.2176
     28 H           7.6670    3.2208   -5.2504 H       1  UNL1        0.0308
     29 H           6.6796    4.4549   -4.4320 H       1  UNL1        0.0308
     30 H           5.9234    2.9604   -5.0325 H       1  UNL1        0.0308
     31 H           8.3585   -0.0826   -2.2439 H       1  UNL1        0.0836
     32 H           5.7355    0.1381    0.3459 H       1  UNL1        0.1087
     33 H           7.2971    0.5997    1.0027 H       1  UNL1        0.1087
     34 H           9.0907   -0.6897    0.8085 H       1  UNL1        0.1376
     35 H           9.9305   -3.0345    0.8171 H       1  UNL1        0.0677
     36 H           8.4971   -4.8280   -0.0618 H       1  UNL1        0.0624
     37 H           5.0777   -4.5893   -0.5438 H       1  UNL1        0.0338
     38 H           6.4915   -5.5800   -0.7366 H       1  UNL1        0.0338
     39 H           5.0485   -4.0762   -2.9601 H       1  UNL1        0.0569
     40 H           5.2236   -5.7945   -2.7416 H       1  UNL1        0.0569
     41 H           6.6569   -7.9440   -3.9331 H       1  UNL1        0.2220
     42 H           9.6872   -3.9487   -6.2068 H       1  UNL1        0.2220
     43 H          10.8776   -3.4245   -3.3458 H       1  UNL1        0.2220
     44 H           5.2852   -2.0843   -2.5067 H       1  UNL1        0.0336
     45 H           5.1018   -0.6547   -1.5623 H       1  UNL1        0.0336
     46 H           4.3600   -2.1421   -0.9745 H       1  UNL1        0.0336
     47 H           6.2537    3.0540    0.8047 H       1  UNL1        0.1437
     48 H           5.2790    3.7615   -0.3193 H       1  UNL1        0.1437
@<TRIPOS>BOND
     1     1     2    1
     2     1    28    1
     3     1    29    1
     4     1    30    1
     5     2     3   ar
     6     2    27   ar
     7     3     4   ar
     8     4     5   ar
     9     4    31    1
    10     5     6    1
    11     5    25   ar
    12     6     7    1
    13     6    32    1
    14     6    33    1
    15     7     8   ar
    16     7    23   ar
    17     8     9   ar
    18     8    34    1
    19     9    10   ar
    20     9    35    1
    21    10    11   ar
    22    10    36    1
    23    11    12    1
    24    11    23   ar
    25    12    13    1
    26    12    37    1
    27    12    38    1
    28    13    14    1
    29    13    39    1
    30    13    40    1
    31    14    15    1
    32    15    16    2
    33    15    17    1
    34    15    18    1
    35    17    41    1
    36    18    19    1
    37    19    20    2
    38    19    21    1
    39    19    22    1
    40    21    42    1
    41    22    43    1
    42    23    24    1
    43    24    44    1
    44    24    45    1
    45    24    46    1
    46    25    26    1
    47    25    27   ar
    48    26    47    1
    49    26    48    1
