REMARK  12 active torsions:
REMARK  status: ('A' for Active; 'I' for Inactive)
REMARK    1  A    between atoms: C_5  and  C_6 
REMARK    2  A    between atoms: C_6  and  N_7 
REMARK    3  A    between atoms: C_11  and  C_12 
REMARK    4  A    between atoms: C_12  and  C_13 
REMARK    5  A    between atoms: C_13  and  O_14 
REMARK    6  A    between atoms: O_14  and  P_15 
REMARK    7  A    between atoms: P_15  and  O_17 
REMARK    8  A    between atoms: P_15  and  O_18 
REMARK    9  A    between atoms: O_18  and  P_19 
REMARK   10  A    between atoms: P_19  and  O_21 
REMARK   11  A    between atoms: P_19  and  O_22 
REMARK   12  A    between atoms: C_25  and  N_26 
ROOT
ATOM      1  N   UNL d   1       7.284  -1.174  -0.135  0.00  0.00    -0.356 N 
ATOM      2  C   UNL d   1       8.496  -1.494   0.383  0.00  0.00     0.091 A 
ATOM      3  C   UNL d   1       8.961  -2.793   0.387  0.00  0.00     0.018 A 
ATOM      4  C   UNL d   1       8.152  -3.793  -0.118  0.00  0.00     0.010 A 
ATOM      5  C   UNL d   1       6.905  -3.484  -0.680  0.00  0.00    -0.034 A 
ATOM      6  C   UNL d   1       6.500  -2.126  -0.743  0.00  0.00     0.014 A 
ATOM      7  C   UNL d   1       5.242  -1.732  -1.474  0.00  0.00     0.069 C 
ENDROOT
BRANCH   5   8
ATOM      8  C   UNL d   1       6.024  -4.654  -1.095  0.00  0.00     0.067 C 
BRANCH   8   9
ATOM      9  C   UNL d   1       5.734  -4.837  -2.584  0.00  0.00     0.185 C 
BRANCH   9  10
ATOM     10  O   UNL d   1       6.916  -4.771  -3.357  0.00  0.00    -0.296 OA
BRANCH  10  11
ATOM     11  P   UNL d   1       7.759  -6.123  -3.564  0.00  0.00     0.401 P 
ATOM     12  O   UNL d   1       8.233  -6.757  -2.302  0.00  0.00    -0.631 OA
BRANCH  11  13
ATOM     13  O   UNL d   1       6.709  -7.057  -4.337  0.00  0.00    -0.307 OA
ATOM     14  H   UNL d   1       6.657  -7.944  -3.933  0.00  0.00     0.222 HD
ENDBRANCH  11  13
BRANCH  11  15
ATOM     15  O   UNL d   1       8.832  -5.784  -4.671  0.00  0.00    -0.195 OA
BRANCH  15  16
ATOM     16  P   UNL d   1      10.235  -5.099  -4.458  0.00  0.00     0.399 P 
ATOM     17  O   UNL d   1      11.355  -5.944  -3.962  0.00  0.00    -0.631 OA
BRANCH  16  18
ATOM     18  O   UNL d   1      10.482  -4.405  -5.870  0.00  0.00    -0.307 OA
ATOM     19  H   UNL d   1       9.687  -3.949  -6.207  0.00  0.00     0.222 HD
ENDBRANCH  16  18
BRANCH  16  20
ATOM     20  O   UNL d   1       9.999  -3.797  -3.556  0.00  0.00    -0.307 OA
ATOM     21  H   UNL d   1      10.878  -3.425  -3.346  0.00  0.00     0.222 HD
ENDBRANCH  16  20
ENDBRANCH  15  16
ENDBRANCH  11  15
ENDBRANCH  10  11
ENDBRANCH   9  10
ENDBRANCH   8   9
ENDBRANCH   5   8
BRANCH   1  22
ATOM     22  C   UNL d   1       6.802   0.223   0.100  0.00  0.00     0.171 C 
BRANCH  22  23
ATOM     23  C   UNL d   1       7.029   1.147  -1.047  0.00  0.00     0.018 A 
ATOM     24  C   UNL d   1       7.774   0.829  -2.163  0.00  0.00     0.131 A 
ATOM     25  N   UNL d   1       7.794   1.572  -3.276  0.00  0.00    -0.245 NA
ATOM     26  C   UNL d   1       7.056   2.694  -3.264  0.00  0.00     0.123 A 
ATOM     27  C   UNL d   1       6.824   3.381  -4.572  0.00  0.00     0.093 C 
ATOM     28  N   UNL d   1       6.378   3.137  -2.191  0.00  0.00    -0.222 NA
ATOM     29  C   UNL d   1       6.395   2.375  -1.094  0.00  0.00     0.112 A 
BRANCH  29  30
ATOM     30  N   UNL d   1       5.672   2.868  -0.007  0.00  0.00    -0.286 NA
ATOM     31  H   UNL d   1       6.254   3.054   0.805  0.00  0.00     0.125 HD
ATOM     32  H   UNL d   1       5.279   3.761  -0.319  0.00  0.00     0.125 HD
ENDBRANCH  29  30
ENDBRANCH  22  23
ENDBRANCH   1  22
TORSDOF 12
