3D2V_PYI_A_84
 OpenBabel03221817293D

 48 49  0  0  0  0  0  0  0  0999 V2000
    6.8239    3.3807   -4.5723 C   0  0  0  0  0  0  0  0  0  0  0  0
    7.0560    2.6936   -3.2641 C   0  0  0  0  0  0  0  0  0  0  0  0
    7.7939    1.5721   -3.2764 N   0  0  0  0  0  0  0  0  0  0  0  0
    7.7742    0.8291   -2.1625 C   0  0  0  0  0  0  0  0  0  0  0  0
    7.0292    1.1473   -1.0469 C   0  0  0  0  0  0  0  0  0  0  0  0
    6.8016    0.2225    0.1001 C   0  0  0  0  0  0  0  0  0  0  0  0
    7.2839   -1.1742   -0.1351 N   0  3  0  0  0  0  0  0  0  0  0  0
    8.4958   -1.4945    0.3830 C   0  0  0  0  0  0  0  0  0  0  0  0
    8.9612   -2.7932    0.3867 C   0  0  0  0  0  0  0  0  0  0  0  0
    8.1515   -3.7935   -0.1178 C   0  0  0  0  0  0  0  0  0  0  0  0
    6.9053   -3.4838   -0.6796 C   0  0  0  0  0  0  0  0  0  0  0  0
    6.0236   -4.6539   -1.0951 C   0  0  0  0  0  0  0  0  0  0  0  0
    5.7343   -4.8372   -2.5839 C   0  0  0  0  0  0  0  0  0  0  0  0
    6.9160   -4.7710   -3.3566 O   0  0  0  0  0  0  0  0  0  0  0  0
    7.7587   -6.1229   -3.5640 P   0  0  1  0  0  0  0  0  0  0  0  0
    8.2335   -6.7568   -2.3019 O   0  0  0  0  0  0  0  0  0  0  0  0
    6.7090   -7.0569   -4.3365 O   0  0  0  0  0  0  0  0  0  0  0  0
    8.8318   -5.7839   -4.6708 O   0  0  0  0  0  0  0  0  0  0  0  0
   10.2349   -5.0994   -4.4579 P   0  0  0  0  0  0  0  0  0  0  0  0
   11.3547   -5.9443   -3.9620 O   0  0  0  0  0  0  0  0  0  0  0  0
   10.4816   -4.4051   -5.8695 O   0  0  0  0  0  0  0  0  0  0  0  0
    9.9987   -3.7970   -3.5558 O   0  0  0  0  0  0  0  0  0  0  0  0
    6.4995   -2.1259   -0.7431 C   0  0  0  0  0  0  0  0  0  0  0  0
    5.2421   -1.7316   -1.4738 C   0  0  0  0  0  0  0  0  0  0  0  0
    6.3954    2.3750   -1.0943 C   0  0  0  0  0  0  0  0  0  0  0  0
    5.6723    2.8684   -0.0073 N   0  0  0  0  0  0  0  0  0  0  0  0
    6.3778    3.1369   -2.1908 N   0  0  0  0  0  0  0  0  0  0  0  0
    7.6670    3.2208   -5.2504 H   0  0  0  0  0  0  0  0  0  0  0  0
    6.6796    4.4549   -4.4320 H   0  0  0  0  0  0  0  0  0  0  0  0
    5.9234    2.9604   -5.0325 H   0  0  0  0  0  0  0  0  0  0  0  0
    8.3585   -0.0826   -2.2439 H   0  0  0  0  0  0  0  0  0  0  0  0
    5.7355    0.1381    0.3459 H   0  0  0  0  0  0  0  0  0  0  0  0
    7.2971    0.5997    1.0027 H   0  0  0  0  0  0  0  0  0  0  0  0
    9.0907   -0.6897    0.8085 H   0  0  0  0  0  0  0  0  0  0  0  0
    9.9305   -3.0345    0.8171 H   0  0  0  0  0  0  0  0  0  0  0  0
    8.4971   -4.8280   -0.0618 H   0  0  0  0  0  0  0  0  0  0  0  0
    5.0777   -4.5893   -0.5438 H   0  0  0  0  0  0  0  0  0  0  0  0
    6.4915   -5.5800   -0.7366 H   0  0  0  0  0  0  0  0  0  0  0  0
    5.0485   -4.0762   -2.9601 H   0  0  0  0  0  0  0  0  0  0  0  0
    5.2236   -5.7945   -2.7416 H   0  0  0  0  0  0  0  0  0  0  0  0
    6.6569   -7.9440   -3.9331 H   0  0  0  0  0  0  0  0  0  0  0  0
    9.6872   -3.9487   -6.2068 H   0  0  0  0  0  0  0  0  0  0  0  0
   10.8776   -3.4245   -3.3458 H   0  0  0  0  0  0  0  0  0  0  0  0
    5.2852   -2.0843   -2.5067 H   0  0  0  0  0  0  0  0  0  0  0  0
    5.1018   -0.6547   -1.5623 H   0  0  0  0  0  0  0  0  0  0  0  0
    4.3600   -2.1421   -0.9745 H   0  0  0  0  0  0  0  0  0  0  0  0
    6.2537    3.0540    0.8047 H   0  0  0  0  0  0  0  0  0  0  0  0
    5.2790    3.7615   -0.3193 H   0  0  0  0  0  0  0  0  0  0  0  0
  1  2  1  0  0  0  0
  1 28  1  0  0  0  0
  1 29  1  0  0  0  0
  1 30  1  0  0  0  0
  2  3  2  0  0  0  0
  2 27  1  0  0  0  0
  3  4  1  0  0  0  0
  4  5  2  0  0  0  0
  4 31  1  0  0  0  0
  5  6  1  0  0  0  0
  5 25  1  0  0  0  0
  6  7  1  0  0  0  0
  6 32  1  0  0  0  0
  6 33  1  0  0  0  0
  7  8  2  0  0  0  0
  7 23  1  0  0  0  0
  8  9  1  0  0  0  0
  8 34  1  0  0  0  0
  9 10  2  0  0  0  0
  9 35  1  0  0  0  0
 10 11  1  0  0  0  0
 10 36  1  0  0  0  0
 11 12  1  0  0  0  0
 11 23  2  0  0  0  0
 12 13  1  0  0  0  0
 12 37  1  0  0  0  0
 12 38  1  0  0  0  0
 13 14  1  0  0  0  0
 13 39  1  0  0  0  0
 13 40  1  0  0  0  0
 14 15  1  0  0  0  0
 15 16  2  1  0  0  0
 15 17  1  0  0  0  0
 15 18  1  0  0  0  0
 17 41  1  0  0  0  0
 18 19  1  0  0  0  0
 19 20  2  0  0  0  0
 19 21  1  0  0  0  0
 19 22  1  0  0  0  0
 21 42  1  0  0  0  0
 22 43  1  0  0  0  0
 23 24  1  0  0  0  0
 24 44  1  0  0  0  0
 24 45  1  0  0  0  0
 24 46  1  0  0  0  0
 25 26  1  0  0  0  0
 25 27  2  0  0  0  0
 26 47  1  0  0  0  0
 26 48  1  0  0  0  0
M  CHG  1   7   1
M  END
$$$$
