3DVV_RIO_A_27
 OpenBabel10091713573D
Coordinates from PDB:3DVV:A:27 Model:1 without hydrogens
 31 33  0  0  0  0  0  0  0  0999 V2000
   18.0690   -6.2380    2.6830 O   0  0  0  0  0  0  0  0  0  0  0  0
   16.6800   -6.3560    2.9990 C   0  0  0  0  0  0  0  0  0  0  0  0
   16.5330   -6.2350    4.5150 C   0  0  1  0  0  0  0  0  0  0  0  0
   16.9710   -4.9290    4.9370 O   0  0  0  0  0  0  0  0  0  0  0  0
   15.9200   -4.3120    5.6960 C   0  0  1  0  0  0  0  0  0  0  0  0
   15.9220   -2.8860    5.5030 O   0  0  0  0  0  0  0  0  0  0  0  0
   16.8320   -2.1970    6.3780 C   0  0  2  0  0  0  0  0  0  0  0  0
   16.0540   -1.7170    7.6090 C   0  0  1  0  0  0  0  0  0  0  0  0
   15.6760   -2.8490    8.3990 O   0  0  0  0  0  0  0  0  0  0  0  0
   16.8840   -0.7590    8.4690 C   0  0  2  0  0  0  0  0  0  0  0  0
   16.1100   -0.3270    9.6400 N   0  0  0  0  0  0  0  0  0  0  0  0
   17.2960    0.4640    7.6470 C   0  0  0  0  0  0  0  0  0  0  0  0
   18.1990   -0.0280    6.5140 C   0  0  2  0  0  0  0  0  0  0  0  0
   18.6470    1.1060    5.6910 N   0  0  0  0  0  0  0  0  0  0  0  0
   17.4780   -1.0400    5.6210 C   0  0  1  0  0  0  0  0  0  0  0  0
   18.4580   -1.4860    4.6700 O   0  0  0  0  0  0  0  0  0  0  0  0
   17.8710   -2.1610    3.5470 C   0  0  1  0  0  0  0  0  0  0  0  0
   17.4320   -1.2000    2.5650 O   0  0  0  0  0  0  0  0  0  0  0  0
   18.4810   -0.4090    1.9750 C   0  0  2  0  0  0  0  0  0  0  0  0
   17.9060    0.5240    0.9060 C   0  0  0  0  0  0  0  0  0  0  0  0
   16.9020    1.4050    1.5180 N   0  0  0  0  0  0  0  0  0  0  0  0
   19.4970   -1.3290    1.2970 C   0  0  1  0  0  0  0  0  0  0  0  0
   20.5380   -0.5390    0.7170 O   0  0  0  0  0  0  0  0  0  0  0  0
   20.0790   -2.2880    2.3380 C   0  0  2  0  0  0  0  0  0  0  0  0
   21.0060   -3.1800    1.7150 O   0  0  0  0  0  0  0  0  0  0  0  0
   18.9440   -3.0930    2.9760 C   0  0  1  0  0  0  0  0  0  0  0  0
   19.4840   -3.9410    4.0500 N   0  0  0  0  0  0  0  0  0  0  0  0
   14.6430   -4.9390    5.1350 C   0  0  2  0  0  0  0  0  0  0  0  0
   13.5430   -4.8540    6.0460 O   0  0  0  0  0  0  0  0  0  0  0  0
   15.0740   -6.3910    4.9460 C   0  0  2  0  0  0  0  0  0  0  0  0
   14.9870   -7.0950    6.1870 O   0  0  0  0  0  0  0  0  0  0  0  0
  1  2  1  0  0  0  0
  3  2  1  6  0  0  0
  3  4  1  0  0  0  0
  3 30  1  0  0  0  0
  4  5  1  0  0  0  0
  5  6  1  6  0  0  0
  5 28  1  0  0  0  0
  7  6  1  6  0  0  0
  7  8  1  0  0  0  0
  7 15  1  0  0  0  0
  8  9  1  1  0  0  0
  8 10  1  0  0  0  0
 10 11  1  1  0  0  0
 10 12  1  0  0  0  0
 12 13  1  0  0  0  0
 13 14  1  6  0  0  0
 13 15  1  0  0  0  0
 15 16  1  6  0  0  0
 17 16  1  1  0  0  0
 17 18  1  0  0  0  0
 17 26  1  0  0  0  0
 18 19  1  0  0  0  0
 19 20  1  6  0  0  0
 19 22  1  0  0  0  0
 20 21  1  0  0  0  0
 22 23  1  1  0  0  0
 22 24  1  0  0  0  0
 24 25  1  6  0  0  0
 24 26  1  0  0  0  0
 26 27  1  1  0  0  0
 28 29  1  1  0  0  0
 28 30  1  0  0  0  0
 30 31  1  1  0  0  0
A    1
O1
A    2
C1
A    3
C2
A    4
O2
A    5
C3
A    6
O3
A    7
C4
A    8
C5
A    9
O4
A   10
C6
A   11
N1
A   12
C7
A   13
C8
A   14
N2
A   15
C9
A   16
O5
A   17
C10
A   18
O6
A   19
C11
A   20
C12
A   21
N3
A   22
C13
A   23
O7
A   24
C14
A   25
O8
A   26
C15
A   27
N4
A   28
C16
A   29
O9
A   30
C17
A   31
O10
M  END
>  <InstanceId>
3DVV_RIO_A_27

>  <ChemCompId>
RIO

>  <PdbId>
3DVV

>  <ChainId>
A

>  <ResidueNumber>
27

>  <InsertionCode>


>  <Model>
1

>  <AltIds>


>  <MissingHeavyAtoms>
0

>  <ObservedFormula>
C17 N4 O10

>  <Name>
RIBOSTAMYCIN

>  <SystematicName>
(2R,3S,4R,5R,6R)-5-amino-2-(aminomethyl)-6-[(1R,2R,3S,4R,6S)-4,6-diamino-2-[(2S,3R,4S,5R)-3,4-dihydroxy-5-(hydroxymethyl)oxolan-2-yl]oxy-3-hydroxy-cyclohexyl]oxy-oxane-3,4-diol

>  <Synonyms>
5-AMINO-2-AMINOMETHYL-6-[4,6-DIAMINO-2-(3,4-DIHYDROXY-5-HYDROXYMETHYL-TETRAHYDRO-FURAN-2-YLOXY)-3-HYDROXY-CYCLOHEXYLOXY]-TETRAHYDRO-PYRAN-3,4-DIOL; (1R,2R,3S,4R,6S)-4,6-diamino-3-hydroxy-2-(beta-D-ribofuranosyloxy)cyclohexyl 2,6-diamino-2,6-dideoxy-alpha-D-glucopyranoside

>  <Type>
NON-POLYMER

>  <Formula>
C17 H34 N4 O10

>  <MolecularWeight>
454.473

>  <ModifiedDate>
2011-06-04

>  <Parent>


>  <OneLetterCode>


>  <SubcomponentList>


>  <AmbiguousFlag>
N

>  <InChI>
InChI=1S/C17H34N4O10/c18-2-6-10(24)12(26)8(21)16(28-6)30-14-5(20)1-4(19)9(23)15(14)31-17-13(27)11(25)7(3-22)29-17/h4-17,22-27H,1-3,18-21H2/t4-,5+,6-,7-,8-,9+,10-,11-,12-,13-,14-,15-,16-,17+/m1/s1

>  <InChIKey>
NSKGQURZWSPSBC-VVPCINPTSA-N

>  <SMILES>
C1[C@H]([C@@H]([C@H]([C@@H]([C@H]1N)O[C@@H]2[C@@H]([C@H]([C@@H]([C@H](O2)CN)O)O)N)O[C@H]3[C@@H]([C@@H]([C@H](O3)CO)O)O)O)N

$$$$
