@<TRIPOS>MOLECULE
3DVV_RIO_A_27
 31 33 0 0 0
SMALL
GASTEIGER
****
Coordinates from PDB:3DVV:A:27 Model:1 without hydrogens
@<TRIPOS>ATOM
      1 O          18.0690   -6.2380    2.6830 O.3     1  UNL1       -0.2176
      2 C          16.6800   -6.3560    2.9990 C.3     1  UNL1        0.2142
      3 C          16.5330   -6.2350    4.5150 C.3     1  UNL1        0.1836
      4 O          16.9710   -4.9290    4.9370 O.3     1  UNL1       -0.3256
      5 C          15.9200   -4.3120    5.6960 C.3     1  UNL1        0.2695
      6 O          15.9220   -2.8860    5.5030 O.3     1  UNL1       -0.3258
      7 C          16.8320   -2.1970    6.3780 C.3     1  UNL1        0.1779
      8 C          16.0540   -1.7170    7.6090 C.3     1  UNL1        0.1989
      9 O          15.6760   -2.8490    8.3990 O.3     1  UNL1       -0.2189
     10 C          16.8840   -0.7590    8.4690 C.3     1  UNL1        0.1261
     11 N          16.1100   -0.3270    9.6400 N.3     1  UNL1       -0.1301
     12 C          17.2960    0.4640    7.6470 C.3     1  UNL1        0.0433
     13 C          18.1990   -0.0280    6.5140 C.3     1  UNL1        0.1230
     14 N          18.6470    1.1060    5.6910 N.3     1  UNL1       -0.1302
     15 C          17.4780   -1.0400    5.6210 C.3     1  UNL1        0.1649
     16 O          18.4580   -1.4860    4.6700 O.3     1  UNL1       -0.3278
     17 C          17.8710   -2.1610    3.5470 C.3     1  UNL1        0.2561
     18 O          17.4320   -1.2000    2.5650 O.3     1  UNL1       -0.3276
     19 C          18.4810   -0.4090    1.9750 C.3     1  UNL1        0.1696
     20 C          17.9060    0.5240    0.9060 C.3     1  UNL1        0.1415
     21 N          16.9020    1.4050    1.5180 N.3     1  UNL1       -0.1286
     22 C          19.4970   -1.3290    1.2970 C.3     1  UNL1        0.2122
     23 O          20.5380   -0.5390    0.7170 O.3     1  UNL1       -0.2177
     24 C          20.0790   -2.2880    2.3380 C.3     1  UNL1        0.2070
     25 O          21.0060   -3.1800    1.7150 O.3     1  UNL1       -0.2186
     26 C          18.9440   -3.0930    2.9760 C.3     1  UNL1        0.1807
     27 N          19.4840   -3.9410    4.0500 N.3     1  UNL1       -0.1248
     28 C          14.6430   -4.9390    5.1350 C.3     1  UNL1        0.2404
     29 O          13.5430   -4.8540    6.0460 O.3     1  UNL1       -0.2149
     30 C          15.0740   -6.3910    4.9460 C.3     1  UNL1        0.2168
     31 O          14.9870   -7.0950    6.1870 O.3     1  UNL1       -0.2175
@<TRIPOS>BOND
     1     1     2    1
     2     3     2    1
     3     3     4    1
     4     3    30    1
     5     4     5    1
     6     5     6    1
     7     5    28    1
     8     7     6    1
     9     7     8    1
    10     7    15    1
    11     8     9    1
    12     8    10    1
    13    10    11    1
    14    10    12    1
    15    12    13    1
    16    13    14    1
    17    13    15    1
    18    15    16    1
    19    17    16    1
    20    17    18    1
    21    17    26    1
    22    18    19    1
    23    19    20    1
    24    19    22    1
    25    20    21    1
    26    22    23    1
    27    22    24    1
    28    24    25    1
    29    24    26    1
    30    26    27    1
    31    28    29    1
    32    28    30    1
    33    30    31    1
