REMARK  6 active torsions:
REMARK  status: ('A' for Active; 'I' for Inactive)
REMARK    1  A    between atoms: C_3  and  C_2 
REMARK    2  A    between atoms: C_5  and  O_6 
REMARK    3  A    between atoms: C_7  and  O_6 
REMARK    4  A    between atoms: C_15  and  O_16 
REMARK    5  A    between atoms: C_17  and  O_16 
REMARK    6  A    between atoms: C_19  and  C_20 
ROOT
ATOM      1  C   UNL d   1      16.832  -2.197   6.378  0.00  0.00     0.180 C 
ATOM      2  C   UNL d   1      16.054  -1.717   7.609  0.00  0.00     0.218 C 
ATOM      3  O   UNL d   1      15.676  -2.849   8.399  0.00  0.00    -0.218 OA
ATOM      4  C   UNL d   1      16.884  -0.759   8.469  0.00  0.00     0.337 C 
ATOM      5  N   UNL d   1      16.110  -0.327   9.640  0.00  0.00     0.619 N 
ATOM      6  C   UNL d   1      17.296   0.464   7.647  0.00  0.00     0.084 C 
ATOM      7  C   UNL d   1      18.199  -0.028   6.514  0.00  0.00     0.333 C 
ATOM      8  N   UNL d   1      18.647   1.106   5.691  0.00  0.00     0.619 N 
ATOM      9  C   UNL d   1      17.478  -1.040   5.621  0.00  0.00     0.184 C 
ENDROOT
BRANCH   9  10
ATOM     10  O   UNL d   1      18.458  -1.486   4.670  0.00  0.00    -0.327 OA
BRANCH  10  11
ATOM     11  C   UNL d   1      17.871  -2.161   3.547  0.00  0.00     0.276 C 
ATOM     12  O   UNL d   1      17.432  -1.200   2.565  0.00  0.00    -0.327 OA
ATOM     13  C   UNL d   1      18.481  -0.409   1.975  0.00  0.00     0.190 C 
ATOM     14  C   UNL d   1      19.497  -1.329   1.297  0.00  0.00     0.214 C 
ATOM     15  O   UNL d   1      20.538  -0.539   0.717  0.00  0.00    -0.218 OA
ATOM     16  C   UNL d   1      20.079  -2.288   2.338  0.00  0.00     0.227 C 
ATOM     17  O   UNL d   1      21.006  -3.180   1.715  0.00  0.00    -0.218 OA
ATOM     18  C   UNL d   1      18.944  -3.093   2.976  0.00  0.00     0.390 C 
ATOM     19  N   UNL d   1      19.484  -3.941   4.050  0.00  0.00     0.624 N 
BRANCH  13  20
ATOM     20  C   UNL d   1      17.906   0.524   0.906  0.00  0.00     0.370 C 
ATOM     21  N   UNL d   1      16.902   1.405   1.518  0.00  0.00     0.621 N 
ENDBRANCH  13  20
ENDBRANCH  10  11
ENDBRANCH   9  10
BRANCH   1  22
ATOM     22  O   UNL d   1      15.922  -2.886   5.503  0.00  0.00    -0.326 OA
BRANCH  22  23
ATOM     23  C   UNL d   1      15.920  -4.312   5.696  0.00  0.00     0.270 C 
ATOM     24  O   UNL d   1      16.971  -4.929   4.937  0.00  0.00    -0.326 OA
ATOM     25  C   UNL d   1      16.533  -6.235   4.515  0.00  0.00     0.184 C 
ATOM     26  C   UNL d   1      15.074  -6.391   4.946  0.00  0.00     0.217 C 
ATOM     27  C   UNL d   1      14.643  -4.939   5.135  0.00  0.00     0.241 C 
ATOM     28  O   UNL d   1      14.987  -7.095   6.187  0.00  0.00    -0.218 OA
ATOM     29  O   UNL d   1      13.543  -4.854   6.046  0.00  0.00    -0.215 OA
BRANCH  25  30
ATOM     30  C   UNL d   1      16.680  -6.356   2.999  0.00  0.00     0.214 C 
ATOM     31  O   UNL d   1      18.069  -6.238   2.683  0.00  0.00    -0.218 OA
ENDBRANCH  25  30
ENDBRANCH  22  23
ENDBRANCH   1  22
TORSDOF 6
