REMARK  15 active torsions:
REMARK  status: ('A' for Active; 'I' for Inactive)
REMARK    1  A    between atoms: P_1  and  O_3 
REMARK    2  A    between atoms: P_1  and  O_4 
REMARK    3  A    between atoms: P_1  and  O_5 
REMARK    4  A    between atoms: P_6  and  O_5 
REMARK    5  A    between atoms: P_6  and  O_8 
REMARK    6  A    between atoms: P_6  and  O_9 
REMARK    7  A    between atoms: P_10  and  O_9 
REMARK    8  A    between atoms: P_10  and  O_12 
REMARK    9  A    between atoms: P_10  and  O_13 
REMARK   10  A    between atoms: O_13  and  C_14 
REMARK   11  A    between atoms: C_14  and  C_15 
REMARK   12  A    between atoms: C_17  and  N_22 
REMARK   13  A    between atoms: C_18  and  O_21 
REMARK   14  A    between atoms: C_19  and  O_20 
REMARK   15  A    between atoms: C_30  and  N_31 
ROOT
ATOM      1  C   UNL d   1       4.899   1.550   7.074  0.00  0.00     0.180 C 
ATOM      2  O   UNL d   1       4.781   2.960   6.855  0.00  0.00    -0.353 OA
ATOM      3  C   UNL d   1       4.505   3.583   8.121  0.00  0.00     0.262 C 
ATOM      4  C   UNL d   1       3.771   2.554   8.979  0.00  0.00     0.198 C 
ATOM      5  C   UNL d   1       3.993   1.226   8.259  0.00  0.00     0.182 C 
ENDROOT
BRANCH   1   6
ATOM      6  C   UNL d   1       4.467   0.768   5.824  0.00  0.00     0.215 C 
BRANCH   6   7
ATOM      7  O   UNL d   1       4.989   1.307   4.626  0.00  0.00    -0.294 OA
BRANCH   7   8
ATOM      8  P   UNL d   1       6.436   0.950   4.089  0.00  0.00     0.401 P 
ATOM      9  O   UNL d   1       7.459   0.521   5.092  0.00  0.00    -0.631 OA
BRANCH   8  10
ATOM     10  O   UNL d   1       6.157  -0.149   2.962  0.00  0.00    -0.307 OA
ATOM     11  H   UNL d   1       6.068  -1.052   3.314  0.00  0.00     0.222 HD
ENDBRANCH   8  10
BRANCH   8  12
ATOM     12  O   UNL d   1       6.853   2.235   3.230  0.00  0.00    -0.195 OA
BRANCH  12  13
ATOM     13  P   UNL d   1       7.398   3.556   4.205  0.00  0.00     0.410 P 
ATOM     14  O   UNL d   1       7.886   4.738   5.078  0.00  0.00    -0.631 OA
BRANCH  13  15
ATOM     15  O   UNL d   1       7.794   4.301   2.789  0.00  0.00    -0.307 OA
ATOM     16  H   UNL d   1       8.748   4.194   2.604  0.00  0.00     0.222 HD
ENDBRANCH  13  15
BRANCH  13  17
ATOM     17  O   UNL d   1       5.767   4.109   4.368  0.00  0.00    -0.195 OA
BRANCH  17  18
ATOM     18  P   UNL d   1       5.602   5.688   3.679  0.00  0.00     0.399 P 
ATOM     19  O   UNL d   1       4.230   5.313   3.120  0.00  0.00    -0.631 OA
BRANCH  18  20
ATOM     20  O   UNL d   1       5.332   6.397   5.117  0.00  0.00    -0.307 OA
ATOM     21  H   UNL d   1       4.375   6.609   5.163  0.00  0.00     0.222 HD
ENDBRANCH  18  20
BRANCH  18  22
ATOM     22  O   UNL d   1       5.437   7.267   2.991  0.00  0.00    -0.307 OA
ATOM     23  H   UNL d   1       6.322   7.628   2.818  0.00  0.00     0.222 HD
ENDBRANCH  18  22
ENDBRANCH  17  18
ENDBRANCH  13  17
ENDBRANCH  12  13
ENDBRANCH   8  12
ENDBRANCH   7   8
ENDBRANCH   6   7
ENDBRANCH   1   6
BRANCH   5  24
ATOM     24  O   UNL d   1       4.560   0.221   9.092  0.00  0.00    -0.390 OA
ATOM     25  H   UNL d   1       4.474   0.559  10.007  0.00  0.00     0.210 HD
ENDBRANCH   5  24
BRANCH   3  26
ATOM     26  N   UNL d   1       3.721   4.787   7.908  0.00  0.00    -0.293 N 
ATOM     27  C   UNL d   1       3.208   5.224   6.715  0.00  0.00     0.214 A 
ATOM     28  N   UNL d   1       2.673   6.424   6.811  0.00  0.00    -0.234 NA
ATOM     29  C   UNL d   1       2.757   6.715   8.145  0.00  0.00     0.173 A 
ATOM     30  C   UNL d   1       2.289   7.879   8.873  0.00  0.00     0.292 A 
ATOM     31  C   UNL d   1       3.359   5.705   8.860  0.00  0.00     0.186 A 
ATOM     32  O   UNL d   1       1.754   8.874   8.387  0.00  0.00    -0.265 OA
ATOM     33  N   UNL d   1       2.497   7.751  10.238  0.00  0.00    -0.152 N 
ATOM     34  H   UNL d   1       2.136   8.509  10.791  0.00  0.00     0.187 HD
ATOM     35  C   UNL d   1       3.087   6.659  10.847  0.00  0.00     0.703 A 
ATOM     36  N   UNL d   1       3.551   5.615  10.200  0.00  0.00    -0.044 NA
BRANCH  35  37
ATOM     37  N   UNL d   1       3.160   6.715  12.200  0.00  0.00    -0.233 N 
ATOM     38  H   UNL d   1       3.232   7.626  12.632  0.00  0.00     0.174 HD
ATOM     39  H   UNL d   1       3.783   6.026  12.608  0.00  0.00     0.174 HD
ENDBRANCH  35  37
ENDBRANCH   3  26
BRANCH   4  40
ATOM     40  O   UNL d   1       4.248   2.499  10.328  0.00  0.00    -0.388 OA
ATOM     41  H   UNL d   1       4.103   3.397  10.697  0.00  0.00     0.210 HD
ENDBRANCH   4  40
TORSDOF 15
