@<TRIPOS>MOLECULE
ligand.pdb
 48 50 0 0 0
SMALL
GASTEIGER

@<TRIPOS>ATOM
      1 P           5.6023    5.6880    3.6794 P.3     1  UNL1        0.4808
      2 O           4.2298    5.3131    3.1199 O.2     1  UNL1       -0.2271
      3 O           5.3319    6.3967    5.1175 O.3     1  UNL1       -0.3023
      4 O           5.4372    7.2666    2.9910 O.3     1  UNL1       -0.3023
      5 O           5.7674    4.1095    4.3678 O.3     1  UNL1       -0.1859
      6 P           7.3982    3.5556    4.2054 P.3     1  UNL1        0.4918
      7 O           7.8865    4.7376    5.0783 O.2     1  UNL1       -0.2265
      8 O           7.7937    4.3015    2.7893 O.3     1  UNL1       -0.3019
      9 O           6.8526    2.2350    3.2301 O.3     1  UNL1       -0.1858
     10 P           6.4355    0.9501    4.0888 P.3     1  UNL1        0.4835
     11 O           7.4591    0.5214    5.0924 O.2     1  UNL1       -0.2269
     12 O           6.1567   -0.1494    2.9624 O.3     1  UNL1       -0.3022
     13 O           4.9890    1.3066    4.6263 O.3     1  UNL1       -0.2837
     14 C           4.4667    0.7676    5.8245 C.3     1  UNL1        0.0879
     15 C           4.8992    1.5505    7.0737 C.3     1  UNL1        0.1134
     16 H           5.9531    1.3428    7.2944 H       1  UNL1        0.0647
     17 O           4.7811    2.9604    6.8547 O.3     1  UNL1       -0.3456
     18 C           4.5049    3.5833    8.1212 C.3     1  UNL1        0.1667
     19 H           5.4565    3.8980    8.5692 H       1  UNL1        0.0866
     20 C           3.7711    2.5535    8.9790 C.3     1  UNL1        0.1285
     21 H           2.6954    2.7591    9.0257 H       1  UNL1        0.0665
     22 C           3.9933    1.2256    8.2595 C.3     1  UNL1        0.1135
     23 H           3.0223    0.8544    7.9132 H       1  UNL1        0.0647
     24 O           4.5599    0.2214    9.0917 O.3     1  UNL1       -0.3864
     25 O           4.2482    2.4987   10.3283 O.3     1  UNL1       -0.3847
     26 N           3.7211    4.7869    7.9076 N.ar    1  UNL1       -0.2854
     27 C           3.2078    5.2237    6.7151 C.ar    1  UNL1        0.1005
     28 N           2.6729    6.4240    6.8113 N.ar    1  UNL1       -0.2286
     29 C           2.7568    6.7151    8.1453 C.ar    1  UNL1        0.1721
     30 C           2.2892    7.8794    8.8726 C.ar    1  UNL1        0.2803
     31 O           1.7543    8.8745    8.3874 O.2     1  UNL1       -0.2654
     32 N           2.4974    7.7514   10.2383 N.ar    1  UNL1       -0.2934
     33 H           2.1357    8.5086   10.7913 H       1  UNL1        0.1716
     34 C           3.0872    6.6589   10.8465 C.ar    1  UNL1        0.1950
     35 N           3.1599    6.7154   12.2003 N.pl3   1  UNL1       -0.3289
     36 N           3.5506    5.6150   10.2004 N.ar    1  UNL1       -0.1963
     37 C           3.3591    5.7045    8.8595 C.ar    1  UNL1        0.1712
     38 H           4.3745    6.6095    5.1632 H       1  UNL1        0.2220
     39 H           6.3221    7.6283    2.8176 H       1  UNL1        0.2220
     40 H           8.7478    4.1941    2.6036 H       1  UNL1        0.2220
     41 H           6.0682   -1.0519    3.3136 H       1  UNL1        0.2220
     42 H           4.7212   -0.2907    5.9096 H       1  UNL1        0.0592
     43 H           3.3820    0.8431    5.7075 H       1  UNL1        0.0592
     44 H           4.4738    0.5591   10.0073 H       1  UNL1        0.2100
     45 H           4.1025    3.3972   10.6972 H       1  UNL1        0.2101
     46 H           3.3072    4.6550    5.7954 H       1  UNL1        0.1030
     47 H           3.2319    7.6258   12.6318 H       1  UNL1        0.1451
     48 H           3.7827    6.0263   12.6076 H       1  UNL1        0.1451
@<TRIPOS>BOND
     1     1     2    2
     2     1     3    1
     3     1     4    1
     4     1     5    1
     5     3    38    1
     6     4    39    1
     7     6     8    1
     8     6     9    1
     9     6     7    2
    10     6     5    1
    11     8    40    1
    12    10    12    1
    13    10    13    1
    14    10    11    2
    15    10     9    1
    16    12    41    1
    17    13    14    1
    18    14    15    1
    19    14    42    1
    20    14    43    1
    21    15    16    1
    22    15    17    1
    23    15    22    1
    24    17    18    1
    25    18    20    1
    26    18    26    1
    27    18    19    1
    28    20    21    1
    29    20    22    1
    30    20    25    1
    31    22    23    1
    32    22    24    1
    33    24    44    1
    34    25    45    1
    35    26    27   ar
    36    26    37   ar
    37    27    28   ar
    38    27    46    1
    39    28    29   ar
    40    29    30   ar
    41    29    37   ar
    42    30    31    2
    43    30    32   ar
    44    32    33    1
    45    32    34   ar
    46    34    35    1
    47    34    36   ar
    48    35    47    1
    49    35    48    1
    50    36    37   ar
