ligand.pdb
 OpenBabel03221817173D

 48 50  0  0  1  0  0  0  0  0999 V2000
    5.6023    5.6880    3.6794 P   0  0  0  0  0  0  0  0  0  0  0  0
    4.2298    5.3131    3.1199 O   0  0  0  0  0  0  0  0  0  0  0  0
    5.3319    6.3967    5.1175 O   0  0  0  0  0  0  0  0  0  0  0  0
    5.4372    7.2666    2.9910 O   0  0  0  0  0  0  0  0  0  0  0  0
    5.7674    4.1095    4.3678 O   0  0  0  0  0  0  0  0  0  0  0  0
    7.3982    3.5556    4.2054 P   0  0  2  0  0  0  0  0  0  0  0  0
    7.8865    4.7376    5.0783 O   0  0  0  0  0  0  0  0  0  0  0  0
    7.7937    4.3015    2.7893 O   0  0  0  0  0  0  0  0  0  0  0  0
    6.8526    2.2350    3.2301 O   0  0  0  0  0  0  0  0  0  0  0  0
    6.4355    0.9501    4.0888 P   0  0  2  0  0  0  0  0  0  0  0  0
    7.4591    0.5214    5.0924 O   0  0  0  0  0  0  0  0  0  0  0  0
    6.1567   -0.1494    2.9624 O   0  0  0  0  0  0  0  0  0  0  0  0
    4.9890    1.3066    4.6263 O   0  0  0  0  0  0  0  0  0  0  0  0
    4.4667    0.7676    5.8245 C   0  0  0  0  0  0  0  0  0  0  0  0
    4.8992    1.5505    7.0737 C   0  0  1  0  0  0  0  0  0  0  0  0
    5.9531    1.3428    7.2944 H   0  0  0  0  0  0  0  0  0  0  0  0
    4.7811    2.9604    6.8547 O   0  0  0  0  0  0  0  0  0  0  0  0
    4.5049    3.5833    8.1212 C   0  0  2  0  0  0  0  0  0  0  0  0
    5.4565    3.8980    8.5692 H   0  0  0  0  0  0  0  0  0  0  0  0
    3.7711    2.5535    8.9790 C   0  0  1  0  0  0  0  0  0  0  0  0
    2.6954    2.7591    9.0257 H   0  0  0  0  0  0  0  0  0  0  0  0
    3.9933    1.2256    8.2595 C   0  0  2  0  0  0  0  0  0  0  0  0
    3.0223    0.8544    7.9132 H   0  0  0  0  0  0  0  0  0  0  0  0
    4.5599    0.2214    9.0917 O   0  0  0  0  0  0  0  0  0  0  0  0
    4.2482    2.4987   10.3283 O   0  0  0  0  0  0  0  0  0  0  0  0
    3.7211    4.7869    7.9076 N   0  0  0  0  0  0  0  0  0  0  0  0
    3.2078    5.2237    6.7151 C   0  0  0  0  0  0  0  0  0  0  0  0
    2.6729    6.4240    6.8113 N   0  0  0  0  0  0  0  0  0  0  0  0
    2.7568    6.7151    8.1453 C   0  0  0  0  0  0  0  0  0  0  0  0
    2.2892    7.8794    8.8726 C   0  0  0  0  0  0  0  0  0  0  0  0
    1.7543    8.8745    8.3874 O   0  0  0  0  0  0  0  0  0  0  0  0
    2.4974    7.7514   10.2383 N   0  0  0  0  0  0  0  0  0  0  0  0
    2.1357    8.5086   10.7913 H   0  0  0  0  0  0  0  0  0  0  0  0
    3.0872    6.6589   10.8465 C   0  0  0  0  0  0  0  0  0  0  0  0
    3.1599    6.7154   12.2003 N   0  0  0  0  0  0  0  0  0  0  0  0
    3.5506    5.6150   10.2004 N   0  0  0  0  0  0  0  0  0  0  0  0
    3.3591    5.7045    8.8595 C   0  0  0  0  0  0  0  0  0  0  0  0
    4.3745    6.6095    5.1632 H   0  0  0  0  0  0  0  0  0  0  0  0
    6.3221    7.6283    2.8176 H   0  0  0  0  0  0  0  0  0  0  0  0
    8.7478    4.1941    2.6036 H   0  0  0  0  0  0  0  0  0  0  0  0
    6.0682   -1.0519    3.3136 H   0  0  0  0  0  0  0  0  0  0  0  0
    4.7212   -0.2907    5.9096 H   0  0  0  0  0  0  0  0  0  0  0  0
    3.3820    0.8431    5.7075 H   0  0  0  0  0  0  0  0  0  0  0  0
    4.4738    0.5591   10.0073 H   0  0  0  0  0  0  0  0  0  0  0  0
    4.1025    3.3972   10.6972 H   0  0  0  0  0  0  0  0  0  0  0  0
    3.3072    4.6550    5.7954 H   0  0  0  0  0  0  0  0  0  0  0  0
    3.2319    7.6258   12.6318 H   0  0  0  0  0  0  0  0  0  0  0  0
    3.7827    6.0263   12.6076 H   0  0  0  0  0  0  0  0  0  0  0  0
  1  2  2  0  0  0  0
  1  3  1  0  0  0  0
  1  4  1  0  0  0  0
  1  5  1  0  0  0  0
  3 38  1  0  0  0  0
  4 39  1  0  0  0  0
  6  8  1  0  0  0  0
  6  9  1  0  0  0  0
  6  7  2  1  0  0  0
  6  5  1  0  0  0  0
  8 40  1  0  0  0  0
 10 12  1  0  0  0  0
 10 13  1  0  0  0  0
 10 11  2  1  0  0  0
 10  9  1  0  0  0  0
 12 41  1  0  0  0  0
 13 14  1  0  0  0  0
 14 15  1  0  0  0  0
 14 42  1  0  0  0  0
 14 43  1  0  0  0  0
 15 16  1  0  0  0  0
 15 17  1  0  0  0  0
 15 22  1  1  0  0  0
 17 18  1  0  0  0  0
 18 20  1  1  0  0  0
 18 26  1  0  0  0  0
 18 19  1  0  0  0  0
 20 21  1  0  0  0  0
 20 22  1  6  0  0  0
 20 25  1  0  0  0  0
 22 23  1  6  0  0  0
 22 24  1  0  0  0  0
 24 44  1  0  0  0  0
 25 45  1  0  0  0  0
 26 27  1  0  0  0  0
 26 37  1  0  0  0  0
 27 28  2  0  0  0  0
 27 46  1  0  0  0  0
 28 29  1  0  0  0  0
 29 30  1  0  0  0  0
 29 37  2  0  0  0  0
 30 31  2  0  0  0  0
 30 32  1  0  0  0  0
 32 33  1  0  0  0  0
 32 34  1  0  0  0  0
 34 35  1  0  0  0  0
 34 36  2  0  0  0  0
 35 47  1  0  0  0  0
 35 48  1  0  0  0  0
 36 37  1  0  0  0  0
M  END
$$$$
