REMARK  23 active torsions:
REMARK  status: ('A' for Active; 'I' for Inactive)
REMARK    1  A    between atoms: O_12  and  C_1 
REMARK    2  A    between atoms: N_11  and  C_2 
REMARK    3  A    between atoms: O_4  and  C_3 
REMARK    4  A    between atoms: O_6  and  C_5 
REMARK    5  A    between atoms: C_9  and  C_7 
REMARK    6  A    between atoms: O_10  and  C_9 
REMARK    7  A    between atoms: C_13  and  O_12 
REMARK    8  A    between atoms: N_36  and  C_14 
REMARK    9  A    between atoms: N_17  and  C_16 
REMARK       I    between atoms: C_18  and  N_17 
REMARK   10  A    between atoms: C_20  and  C_18 
REMARK   11  A    between atoms: C_21  and  C_20 
REMARK   12  A    between atoms: O_24  and  C_20 
REMARK   13  A    between atoms: C_22  and  C_21 
REMARK   14  A    between atoms: N_23  and  C_22 
REMARK   15  A    between atoms: O_28  and  C_25 
REMARK   16  A    between atoms: O_27  and  C_26 
REMARK   17  A    between atoms: C_29  and  O_28 
REMARK   18  A    between atoms: C_30  and  C_29 
REMARK   19  A    between atoms: N_31  and  C_30 
REMARK   20  A    between atoms: C_32  and  N_31 
REMARK   21  A    between atoms: C_33  and  C_32 
REMARK   22  A    between atoms: C_34  and  C_33 
REMARK   23  A    between atoms: N_35  and  C_34 
ROOT
ATOM      1  C   UNL d   1       5.587   3.035  -2.977  0.00  0.00     0.189 C 
ATOM      2  C   UNL d   1       6.735   3.523  -2.089  0.00  0.00     0.251 C 
ATOM      3  C   UNL d   1       8.083   3.120  -2.686  0.00  0.00     0.066 C 
ATOM      4  C   UNL d   1       8.243   3.391  -4.211  0.00  0.00     0.118 C 
ATOM      5  C   UNL d   1       6.924   3.557  -5.032  0.00  0.00     0.175 C 
ATOM      6  C   UNL d   1       5.689   3.944  -4.208  0.00  0.00     0.180 C 
ENDROOT
BRANCH   1   7
ATOM      7  O   UNL d   1       4.353   3.246  -2.304  0.00  0.00    -0.349 OA
BRANCH   7   8
ATOM      8  C   UNL d   1       3.396   2.188  -2.152  0.00  0.00     0.296 C 
ATOM      9  C   UNL d   1       3.770   0.812  -1.527  0.00  0.00     0.303 C 
ATOM     10  C   UNL d   1       4.213  -0.216  -2.577  0.00  0.00     0.187 C 
ATOM     11  C   UNL d   1       3.233  -0.218  -3.754  0.00  0.00     0.180 C 
ATOM     12  C   UNL d   1       3.029   1.195  -4.315  0.00  0.00     0.179 C 
ATOM     13  O   UNL d   1       2.520   2.041  -3.277  0.00  0.00    -0.349 OA
BRANCH   9  14
ATOM     14  N   UNL d   1       4.717   0.925  -0.428  0.00  0.00     0.090 N 
ATOM     15  H   UNL d   1       5.662   1.025  -0.792  0.00  0.00     0.313 HD
ATOM     16  H   UNL d   1       4.712   0.073   0.131  0.00  0.00     0.313 HD
ENDBRANCH   9  14
BRANCH  10  17
ATOM     17  O   UNL d   1       4.228  -1.526  -2.002  0.00  0.00    -0.391 OA
ATOM     18  H   UNL d   1       5.153  -1.820  -1.970  0.00  0.00     0.210 HD
ENDBRANCH  10  17
BRANCH  11  19
ATOM     19  O   UNL d   1       3.757  -1.075  -4.769  0.00  0.00    -0.390 OA
ATOM     20  H   UNL d   1       4.547  -0.644  -5.135  0.00  0.00     0.210 HD
ENDBRANCH  11  19
BRANCH  12  21
ATOM     21  C   UNL d   1       2.006   1.253  -5.450  0.00  0.00     0.198 C 
BRANCH  21  22
ATOM     22  O   UNL d   1       2.646   1.038  -6.700  0.00  0.00    -0.398 OA
ATOM     23  H   UNL d   1       2.921   1.911  -7.033  0.00  0.00     0.209 HD
ENDBRANCH  21  22
ENDBRANCH  12  21
ENDBRANCH   7   8
ENDBRANCH   1   7
BRANCH   2  24
ATOM     24  N   UNL d   1       6.588   3.048  -0.723  0.00  0.00     0.085 N 
ATOM     25  H   UNL d   1       7.328   3.420  -0.130  0.00  0.00     0.313 HD
ATOM     26  H   UNL d   1       5.713   3.419  -0.347  0.00  0.00     0.313 HD
ENDBRANCH   2  24
BRANCH   6  27
ATOM     27  O   UNL d   1       4.533   3.866  -5.029  0.00  0.00    -0.390 OA
ATOM     28  H   UNL d   1       3.817   4.269  -4.515  0.00  0.00     0.210 HD
ENDBRANCH   6  27
BRANCH   5  29
ATOM     29  O   UNL d   1       7.053   4.430  -6.167  0.00  0.00    -0.379 OA
BRANCH  29  30
ATOM     30  C   UNL d   1       7.501   5.763  -5.923  0.00  0.00     0.198 C 
BRANCH  30  31
ATOM     31  C   UNL d   1       6.919   6.771  -6.932  0.00  0.00     0.295 C 
BRANCH  31  32
ATOM     32  N   UNL d   1       6.451   6.158  -8.177  0.00  0.00     0.085 N 
ATOM     33  H   UNL d   1       6.956   5.282  -8.310  0.00  0.00     0.315 HD
BRANCH  32  34
ATOM     34  C   UNL d   1       5.002   5.936  -8.181  0.00  0.00     0.271 C 
BRANCH  34  35
ATOM     35  C   UNL d   1       4.543   4.850  -9.174  0.00  0.00     0.059 C 
BRANCH  35  36
ATOM     36  C   UNL d   1       5.067   3.450  -8.826  0.00  0.00     0.268 C 
BRANCH  36  37
ATOM     37  N   UNL d   1       4.738   2.472  -9.857  0.00  0.00     0.078 N 
ATOM     38  H   UNL d   1       5.232   2.703 -10.718  0.00  0.00     0.312 HD
ATOM     39  H   UNL d   1       3.743   2.506 -10.069  0.00  0.00     0.312 HD
ENDBRANCH  36  37
ENDBRANCH  35  36
ENDBRANCH  34  35
ENDBRANCH  32  34
ENDBRANCH  31  32
ENDBRANCH  30  31
ENDBRANCH  29  30
ENDBRANCH   5  29
BRANCH   4  40
ATOM     40  N   UNL d   1       9.128   2.406  -4.869  0.00  0.00    -0.352 N 
ATOM     41  C   UNL d   1       9.097   1.044  -4.611  0.00  0.00     0.246 C 
ATOM     42  O   UNL d   1       8.126   0.322  -4.807  0.00  0.00    -0.271 OA
ATOM     43  H   UNL d   1       9.499   2.667  -5.775  0.00  0.00     0.163 HD
BRANCH  41  44
ATOM     44  C   UNL d   1      10.442   0.524  -4.136  0.00  0.00     0.211 C 
BRANCH  44  45
ATOM     45  C   UNL d   1      10.470   0.220  -2.630  0.00  0.00     0.071 C 
BRANCH  45  46
ATOM     46  C   UNL d   1       9.450  -0.802  -2.106  0.00  0.00     0.269 C 
BRANCH  46  47
ATOM     47  N   UNL d   1       9.615  -2.126  -2.686  0.00  0.00     0.078 N 
ATOM     48  H   UNL d   1      10.340  -2.635  -2.184  0.00  0.00     0.312 HD
ATOM     49  H   UNL d   1       9.941  -2.049  -3.647  0.00  0.00     0.312 HD
ENDBRANCH  46  47
ENDBRANCH  45  46
ENDBRANCH  44  45
BRANCH  44  50
ATOM     50  O   UNL d   1      10.791  -0.635  -4.875  0.00  0.00    -0.386 OA
ATOM     51  H   UNL d   1      11.045  -0.352  -5.769  0.00  0.00     0.210 HD
ENDBRANCH  44  50
ENDBRANCH  41  44
ENDBRANCH   4  40
TORSDOF 23
