@<TRIPOS>MOLECULE
2F4U_AB6_B_41
 80 81 0 0 0
SMALL
GASTEIGER

@<TRIPOS>ATOM
      1 C           3.3955    2.1877   -2.1518 C.3     1  UNL1        0.1776
      2 H           2.7386    2.6343   -1.3962 H       1  UNL1        0.0927
      3 C           3.7702    0.8116   -1.5269 C.3     1  UNL1        0.0853
      4 H           2.8476    0.4120   -1.0798 H       1  UNL1        0.0535
      5 C           4.2126   -0.2159   -2.5767 C.3     1  UNL1        0.1033
      6 H           5.2266   -0.0022   -2.9280 H       1  UNL1        0.0637
      7 O           4.2277   -1.5257   -2.0019 O.3     1  UNL1       -0.3874
      8 C           3.2326   -0.2183   -3.7537 C.3     1  UNL1        0.1109
      9 H           2.2704   -0.6389   -3.4453 H       1  UNL1        0.0646
     10 O           3.7573   -1.0751   -4.7689 O.3     1  UNL1       -0.3865
     11 C           3.0294    1.1950   -4.3152 C.3     1  UNL1        0.1129
     12 H           3.9788    1.5848   -4.6766 H       1  UNL1        0.0647
     13 O           2.5202    2.0409   -3.2771 O.3     1  UNL1       -0.3415
     14 C           2.0064    1.2526   -5.4504 C.3     1  UNL1        0.0730
     15 O           2.6456    1.0377   -6.7003 O.3     1  UNL1       -0.3924
     16 N           4.7171    0.9251   -0.4284 N.3     1  UNL1       -0.3211
     17 O           4.3526    3.2464   -2.3038 O.3     1  UNL1       -0.3422
     18 C           5.5866    3.0352   -2.9770 C.3     1  UNL1        0.1051
     19 H           5.7117    1.9915   -3.2647 H       1  UNL1        0.0639
     20 C           6.7352    3.5231   -2.0892 C.3     1  UNL1        0.0358
     21 H           6.7059    4.6144   -2.0307 H       1  UNL1        0.0485
     22 C           8.0832    3.1202   -2.6856 C.3     1  UNL1       -0.0142
     23 C           8.2427    3.3910   -4.2107 C.3     1  UNL1        0.0533
     24 H           8.8212    4.3138   -4.2966 H       1  UNL1        0.0525
     25 N           9.1278    2.4065   -4.8688 N.am    1  UNL1       -0.3077
     26 C           9.0969    1.0444   -4.6107 C.2     1  UNL1        0.2420
     27 O           8.1261    0.3224   -4.8073 O.2     1  UNL1       -0.2730
     28 C          10.4422    0.5236   -4.1355 C.3     1  UNL1        0.1320
     29 H          11.2063    1.2779   -4.3493 H       1  UNL1        0.0690
     30 C          10.4702    0.2203   -2.6296 C.3     1  UNL1       -0.0059
     31 C           9.4502   -0.8018   -2.1062 C.3     1  UNL1       -0.0041
     32 N           9.6151   -2.1262   -2.6857 N.3     1  UNL1       -0.3299
     33 O          10.7911   -0.6353   -4.8745 O.3     1  UNL1       -0.3825
     34 C           6.9236    3.5573   -5.0323 C.3     1  UNL1        0.1053
     35 H           6.6853    2.5834   -5.4876 H       1  UNL1        0.0641
     36 C           5.6895    3.9444   -4.2085 C.3     1  UNL1        0.1106
     37 H           5.7541    4.9904   -3.8907 H       1  UNL1        0.0646
     38 O           4.5331    3.8660   -5.0285 O.3     1  UNL1       -0.3865
     39 O           7.0530    4.4300   -6.1670 O.3     1  UNL1       -0.3708
     40 C           7.5011    5.7631   -5.9229 C.3     1  UNL1        0.0607
     41 C           6.9187    6.7706   -6.9319 C.3     1  UNL1        0.0194
     42 N           6.4507    6.1578   -8.1767 N.3     1  UNL1       -0.3138
     43 C           5.0021    5.9357   -8.1805 C.3     1  UNL1       -0.0029
     44 C           4.5430    4.8498   -9.1744 C.3     1  UNL1       -0.0281
     45 C           5.0674    3.4496   -8.8256 C.3     1  UNL1       -0.0058
     46 N           4.7377    2.4721   -9.8568 N.3     1  UNL1       -0.3299
     47 N           6.5883    3.0479   -0.7230 N.3     1  UNL1       -0.3250
     48 H           5.1529   -1.8199   -1.9702 H       1  UNL1        0.2100
     49 H           4.5468   -0.6441   -5.1352 H       1  UNL1        0.2100
     50 H           1.2164    0.5026   -5.3371 H       1  UNL1        0.0584
     51 H           1.5244    2.2367   -5.4806 H       1  UNL1        0.0584
     52 H           2.9206    1.9111   -7.0332 H       1  UNL1        0.2095
     53 H           5.6616    1.0250   -0.7923 H       1  UNL1        0.1187
     54 H           4.7121    0.0731    0.1309 H       1  UNL1        0.1187
     55 H           8.2795    2.0712   -2.4586 H       1  UNL1        0.0300
     56 H           8.8565    3.6920   -2.1510 H       1  UNL1        0.0300
     57 H           9.4994    2.6673   -5.7746 H       1  UNL1        0.1491
     58 H          11.4818   -0.1163   -2.3516 H       1  UNL1        0.0307
     59 H          10.3238    1.1599   -2.0768 H       1  UNL1        0.0307
     60 H           9.5723   -0.8859   -1.0204 H       1  UNL1        0.0423
     61 H           8.4280   -0.4456   -2.2741 H       1  UNL1        0.0423
     62 H          10.3399   -2.6348   -2.1842 H       1  UNL1        0.1182
     63 H           9.9407   -2.0494   -3.6471 H       1  UNL1        0.1182
     64 H          11.0452   -0.3525   -5.7689 H       1  UNL1        0.2104
     65 H           3.8175    4.2688   -4.5150 H       1  UNL1        0.2100
     66 H           7.2839    6.0898   -4.9016 H       1  UNL1        0.0572
     67 H           8.5868    5.7552   -6.0397 H       1  UNL1        0.0572
     68 H           6.1372    7.3842   -6.4659 H       1  UNL1        0.0446
     69 H           7.7109    7.4773   -7.2088 H       1  UNL1        0.0446
     70 H           6.9556    5.2817   -8.3102 H       1  UNL1        0.1220
     71 H           4.5236    6.8819   -8.4664 H       1  UNL1        0.0424
     72 H           4.6291    5.6852   -7.1793 H       1  UNL1        0.0424
     73 H           3.4431    4.8210   -9.1543 H       1  UNL1        0.0290
     74 H           4.8247    5.1353  -10.1970 H       1  UNL1        0.0290
     75 H           6.1543    3.4512   -8.7126 H       1  UNL1        0.0422
     76 H           4.6411    3.1205   -7.8729 H       1  UNL1        0.0422
     77 H           5.2324    2.7032  -10.7177 H       1  UNL1        0.1182
     78 H           3.7428    2.5061  -10.0686 H       1  UNL1        0.1182
     79 H           7.3276    3.4198   -0.1297 H       1  UNL1        0.1185
     80 H           5.7135    3.4194   -0.3468 H       1  UNL1        0.1185
@<TRIPOS>BOND
     1     1     2    1
     2     3     1    1
     3     3     4    1
     4     5     3    1
     5     5     6    1
     6     7     5    1
     7     8     5    1
     8     8     9    1
     9    10     8    1
    10    11     8    1
    11    11    12    1
    12    13    11    1
    13    13     1    1
    14    14    11    1
    15    15    14    1
    16    16     3    1
    17    17     1    1
    18    18    17    1
    19    18    19    1
    20    20    18    1
    21    20    21    1
    22    22    20    1
    23    23    22    1
    24    23    24    1
    25    25    23    1
    26    26    25   am
    27    27    26    2
    28    28    26    1
    29    28    29    1
    30    30    28    1
    31    31    30    1
    32    32    31    1
    33    33    28    1
    34    34    23    1
    35    34    35    1
    36    36    34    1
    37    36    37    1
    38    36    18    1
    39    38    36    1
    40    39    34    1
    41    40    39    1
    42    41    40    1
    43    42    41    1
    44    43    42    1
    45    44    43    1
    46    45    44    1
    47    46    45    1
    48    47    20    1
    49     7    48    1
    50    10    49    1
    51    14    50    1
    52    14    51    1
    53    15    52    1
    54    16    53    1
    55    16    54    1
    56    22    55    1
    57    22    56    1
    58    25    57    1
    59    30    58    1
    60    30    59    1
    61    31    60    1
    62    31    61    1
    63    32    62    1
    64    32    63    1
    65    33    64    1
    66    38    65    1
    67    40    66    1
    68    40    67    1
    69    41    68    1
    70    41    69    1
    71    42    70    1
    72    43    71    1
    73    43    72    1
    74    44    73    1
    75    44    74    1
    76    45    75    1
    77    45    76    1
    78    46    77    1
    79    46    78    1
    80    47    79    1
    81    47    80    1
