2F4U_AB6_B_41
  1228              3D

 80 81  0  0  0  0  0  0  0  0999 V2000
    3.3955    2.1877   -2.1518 C   0  0  0  0  0  0  0  0  0  0  0  0
    2.7386    2.6343   -1.3962 H   0  0  0  0  0  0  0  0  0  0  0  0
    3.7702    0.8116   -1.5269 C   0  0  0  0  0  0  0  0  0  0  0  0
    2.8476    0.4120   -1.0798 H   0  0  0  0  0  0  0  0  0  0  0  0
    4.2126   -0.2159   -2.5767 C   0  0  0  0  0  0  0  0  0  0  0  0
    5.2266   -0.0022   -2.9280 H   0  0  0  0  0  0  0  0  0  0  0  0
    4.2277   -1.5257   -2.0019 O   0  0  0  0  0  0  0  0  0  0  0  0
    3.2326   -0.2183   -3.7537 C   0  0  0  0  0  0  0  0  0  0  0  0
    2.2704   -0.6389   -3.4453 H   0  0  0  0  0  0  0  0  0  0  0  0
    3.7573   -1.0751   -4.7689 O   0  0  0  0  0  0  0  0  0  0  0  0
    3.0294    1.1950   -4.3152 C   0  0  0  0  0  0  0  0  0  0  0  0
    3.9788    1.5848   -4.6766 H   0  0  0  0  0  0  0  0  0  0  0  0
    2.5202    2.0409   -3.2771 O   0  0  0  0  0  0  0  0  0  0  0  0
    2.0064    1.2526   -5.4504 C   0  0  0  0  0  0  0  0  0  0  0  0
    2.6456    1.0377   -6.7003 O   0  0  0  0  0  0  0  0  0  0  0  0
    4.7171    0.9251   -0.4284 N   0  0  0  0  0  0  0  0  0  0  0  0
    4.3526    3.2464   -2.3038 O   0  0  0  0  0  0  0  0  0  0  0  0
    5.5866    3.0352   -2.9770 C   0  0  0  0  0  0  0  0  0  0  0  0
    5.7117    1.9915   -3.2647 H   0  0  0  0  0  0  0  0  0  0  0  0
    6.7352    3.5231   -2.0892 C   0  0  0  0  0  0  0  0  0  0  0  0
    6.7059    4.6144   -2.0307 H   0  0  0  0  0  0  0  0  0  0  0  0
    8.0832    3.1202   -2.6856 C   0  0  0  0  0  0  0  0  0  0  0  0
    8.2427    3.3910   -4.2107 C   0  0  0  0  0  0  0  0  0  0  0  0
    8.8212    4.3138   -4.2966 H   0  0  0  0  0  0  0  0  0  0  0  0
    9.1278    2.4065   -4.8688 N   0  0  0  0  0  0  0  0  0  0  0  0
    9.0969    1.0444   -4.6107 C   0  0  0  0  0  0  0  0  0  0  0  0
    8.1261    0.3224   -4.8073 O   0  0  0  0  0  0  0  0  0  0  0  0
   10.4422    0.5236   -4.1355 C   0  0  0  0  0  0  0  0  0  0  0  0
   11.2063    1.2779   -4.3493 H   0  0  0  0  0  0  0  0  0  0  0  0
   10.4702    0.2203   -2.6296 C   0  0  0  0  0  0  0  0  0  0  0  0
    9.4502   -0.8018   -2.1062 C   0  0  0  0  0  0  0  0  0  0  0  0
    9.6151   -2.1262   -2.6857 N   0  0  0  0  0  0  0  0  0  0  0  0
   10.7911   -0.6353   -4.8745 O   0  0  0  0  0  0  0  0  0  0  0  0
    6.9236    3.5573   -5.0323 C   0  0  0  0  0  0  0  0  0  0  0  0
    6.6853    2.5834   -5.4876 H   0  0  0  0  0  0  0  0  0  0  0  0
    5.6895    3.9444   -4.2085 C   0  0  0  0  0  0  0  0  0  0  0  0
    5.7541    4.9904   -3.8907 H   0  0  0  0  0  0  0  0  0  0  0  0
    4.5331    3.8660   -5.0285 O   0  0  0  0  0  0  0  0  0  0  0  0
    7.0530    4.4300   -6.1670 O   0  0  0  0  0  0  0  0  0  0  0  0
    7.5011    5.7631   -5.9229 C   0  0  0  0  0  0  0  0  0  0  0  0
    6.9187    6.7706   -6.9319 C   0  0  0  0  0  0  0  0  0  0  0  0
    6.4507    6.1578   -8.1767 N   0  0  0  0  0  0  0  0  0  0  0  0
    5.0021    5.9357   -8.1805 C   0  0  0  0  0  0  0  0  0  0  0  0
    4.5430    4.8498   -9.1744 C   0  0  0  0  0  0  0  0  0  0  0  0
    5.0674    3.4496   -8.8256 C   0  0  0  0  0  0  0  0  0  0  0  0
    4.7377    2.4721   -9.8568 N   0  0  0  0  0  0  0  0  0  0  0  0
    6.5883    3.0479   -0.7230 N   0  0  0  0  0  0  0  0  0  0  0  0
    5.1529   -1.8199   -1.9702 H   0  0  0  0  0  0  0  0  0  0  0  0
    4.5468   -0.6441   -5.1352 H   0  0  0  0  0  0  0  0  0  0  0  0
    1.2164    0.5026   -5.3371 H   0  0  0  0  0  0  0  0  0  0  0  0
    1.5244    2.2367   -5.4806 H   0  0  0  0  0  0  0  0  0  0  0  0
    2.9206    1.9111   -7.0332 H   0  0  0  0  0  0  0  0  0  0  0  0
    5.6616    1.0250   -0.7923 H   0  0  0  0  0  0  0  0  0  0  0  0
    4.7121    0.0731    0.1309 H   0  0  0  0  0  0  0  0  0  0  0  0
    8.2795    2.0712   -2.4586 H   0  0  0  0  0  0  0  0  0  0  0  0
    8.8565    3.6920   -2.1510 H   0  0  0  0  0  0  0  0  0  0  0  0
    9.4994    2.6673   -5.7746 H   0  0  0  0  0  0  0  0  0  0  0  0
   11.4818   -0.1163   -2.3516 H   0  0  0  0  0  0  0  0  0  0  0  0
   10.3238    1.1599   -2.0768 H   0  0  0  0  0  0  0  0  0  0  0  0
    9.5723   -0.8859   -1.0204 H   0  0  0  0  0  0  0  0  0  0  0  0
    8.4280   -0.4456   -2.2741 H   0  0  0  0  0  0  0  0  0  0  0  0
   10.3399   -2.6348   -2.1842 H   0  0  0  0  0  0  0  0  0  0  0  0
    9.9407   -2.0494   -3.6471 H   0  0  0  0  0  0  0  0  0  0  0  0
   11.0452   -0.3525   -5.7689 H   0  0  0  0  0  0  0  0  0  0  0  0
    3.8175    4.2688   -4.5150 H   0  0  0  0  0  0  0  0  0  0  0  0
    7.2839    6.0898   -4.9016 H   0  0  0  0  0  0  0  0  0  0  0  0
    8.5868    5.7552   -6.0397 H   0  0  0  0  0  0  0  0  0  0  0  0
    6.1372    7.3842   -6.4659 H   0  0  0  0  0  0  0  0  0  0  0  0
    7.7109    7.4773   -7.2088 H   0  0  0  0  0  0  0  0  0  0  0  0
    6.9556    5.2817   -8.3102 H   0  0  0  0  0  0  0  0  0  0  0  0
    4.5236    6.8819   -8.4664 H   0  0  0  0  0  0  0  0  0  0  0  0
    4.6291    5.6852   -7.1793 H   0  0  0  0  0  0  0  0  0  0  0  0
    3.4431    4.8210   -9.1543 H   0  0  0  0  0  0  0  0  0  0  0  0
    4.8247    5.1353  -10.1970 H   0  0  0  0  0  0  0  0  0  0  0  0
    6.1543    3.4512   -8.7126 H   0  0  0  0  0  0  0  0  0  0  0  0
    4.6411    3.1205   -7.8729 H   0  0  0  0  0  0  0  0  0  0  0  0
    5.2324    2.7032  -10.7177 H   0  0  0  0  0  0  0  0  0  0  0  0
    3.7428    2.5061  -10.0686 H   0  0  0  0  0  0  0  0  0  0  0  0
    7.3276    3.4198   -0.1297 H   0  0  0  0  0  0  0  0  0  0  0  0
    5.7135    3.4194   -0.3468 H   0  0  0  0  0  0  0  0  0  0  0  0
  1  2  1  0  0  0  0
  3  1  1  0  0  0  0
  3  4  1  0  0  0  0
  5  3  1  0  0  0  0
  5  6  1  0  0  0  0
  7  5  1  0  0  0  0
  8  5  1  0  0  0  0
  8  9  1  0  0  0  0
 10  8  1  0  0  0  0
 11  8  1  0  0  0  0
 11 12  1  0  0  0  0
 13 11  1  0  0  0  0
 13  1  1  0  0  0  0
 14 11  1  0  0  0  0
 15 14  1  0  0  0  0
 16  3  1  0  0  0  0
 17  1  1  0  0  0  0
 18 17  1  0  0  0  0
 18 19  1  0  0  0  0
 20 18  1  0  0  0  0
 20 21  1  0  0  0  0
 22 20  1  0  0  0  0
 23 22  1  0  0  0  0
 23 24  1  0  0  0  0
 25 23  1  0  0  0  0
 26 25  1  0  0  0  0
 27 26  2  0  0  0  0
 28 26  1  0  0  0  0
 28 29  1  0  0  0  0
 30 28  1  0  0  0  0
 31 30  1  0  0  0  0
 32 31  1  0  0  0  0
 33 28  1  0  0  0  0
 34 23  1  0  0  0  0
 34 35  1  0  0  0  0
 36 34  1  0  0  0  0
 36 37  1  0  0  0  0
 36 18  1  0  0  0  0
 38 36  1  0  0  0  0
 39 34  1  0  0  0  0
 40 39  1  0  0  0  0
 41 40  1  0  0  0  0
 42 41  1  0  0  0  0
 43 42  1  0  0  0  0
 44 43  1  0  0  0  0
 45 44  1  0  0  0  0
 46 45  1  0  0  0  0
 47 20  1  0  0  0  0
  7 48  1  0  0  0  0
 10 49  1  0  0  0  0
 14 50  1  0  0  0  0
 14 51  1  0  0  0  0
 15 52  1  0  0  0  0
 16 53  1  0  0  0  0
 16 54  1  0  0  0  0
 22 55  1  0  0  0  0
 22 56  1  0  0  0  0
 25 57  1  0  0  0  0
 30 58  1  0  0  0  0
 30 59  1  0  0  0  0
 31 60  1  0  0  0  0
 31 61  1  0  0  0  0
 32 62  1  0  0  0  0
 32 63  1  0  0  0  0
 33 64  1  0  0  0  0
 38 65  1  0  0  0  0
 40 66  1  0  0  0  0
 40 67  1  0  0  0  0
 41 68  1  0  0  0  0
 41 69  1  0  0  0  0
 42 70  1  0  0  0  0
 43 71  1  0  0  0  0
 43 72  1  0  0  0  0
 44 73  1  0  0  0  0
 44 74  1  0  0  0  0
 45 75  1  0  0  0  0
 45 76  1  0  0  0  0
 46 77  1  0  0  0  0
 46 78  1  0  0  0  0
 47 79  1  0  0  0  0
 47 80  1  0  0  0  0
M  END
>  <energy>
115.89009606785227

$$$$
