REMARK  7 active torsions:
REMARK  status: ('A' for Active; 'I' for Inactive)
REMARK    1  A    between atoms: CA_2  and  N_1 
REMARK    2  A    between atoms: C_3  and  CA_2 
REMARK    3  A    between atoms: CB_6  and  CA_2 
REMARK    4  A    between atoms: OXT_5  and  C_3 
REMARK    5  A    between atoms: CG_7  and  CB_6 
REMARK    6  A    between atoms: CD_8  and  CG_7 
REMARK    7  A    between atoms: NE_9  and  CD_8 
REMARK       I    between atoms: CZ_10  and  NE_9 
REMARK       I    between atoms: NH1_11  and  CZ_10 
REMARK       I    between atoms: NH2_14  and  CZ_10 
ROOT
ATOM      1  CG  ARG d   1      -0.337   1.696  -0.285  0.00  0.00     0.023 C 
ENDROOT
BRANCH   1   2
ATOM      2  CB  ARG d   1      -1.811   1.298  -0.462  0.00  0.00     0.048 C 
BRANCH   2   3
ATOM      3  CA  ARG d   1      -2.111  -0.026   0.260  0.00  0.00     0.314 C 
BRANCH   3   4
ATOM      4  N   ARG d   1      -3.243  -0.746  -0.322  0.00  0.00     0.093 N 
ATOM      5  H1  ARG d   1      -3.310  -1.669   0.110  0.00  0.00     0.314 HD
ATOM      6  H2  ARG d   1      -4.113  -0.266  -0.096  0.00  0.00     0.314 HD
ENDBRANCH   3   4
BRANCH   3   7
ATOM      7  C   ARG d   1      -2.418   0.185   1.724  0.00  0.00     0.173 C 
ATOM      8  O   ARG d   1      -1.804  -0.347   2.639  0.00  0.00    -0.648 OA
BRANCH   7   9
ATOM      9  OXT ARG d   1      -3.464   1.028   1.913  0.00  0.00    -0.775 OA
ATOM     10  HXT ARG d   1      -3.404   1.496   2.772  0.00  0.00     0.167 HD
ENDBRANCH   7   9
ENDBRANCH   3   7
ENDBRANCH   2   3
ENDBRANCH   1   2
BRANCH   1  11
ATOM     11  CD  ARG d   1       0.040   2.916  -1.119  0.00  0.00     0.138 C 
BRANCH  11  12
ATOM     12  NE  ARG d   1       1.427   3.353  -0.851  0.00  0.00    -0.227 N 
ATOM     13  CZ  ARG d   1       2.558   2.668  -1.303  0.00  0.00     0.665 C 
ATOM     14  NH1 ARG d   1       2.474   1.638  -2.232  0.00  0.00    -0.235 N 
ATOM     15  NH2 ARG d   1       3.808   3.025  -0.812  0.00  0.00    -0.235 N 
ATOM     16 1HH1 ARG d   1       3.309   1.148  -2.543  0.00  0.00     0.174 HD
ATOM     17 2HH1 ARG d   1       1.584   1.332  -2.614  0.00  0.00     0.174 HD
ATOM     18 1HH2 ARG d   1       4.564   2.345  -0.767  0.00  0.00     0.174 HD
ATOM     19 2HH2 ARG d   1       4.001   3.971  -0.494  0.00  0.00     0.174 HD
ATOM     20  HE  ARG d   1       1.576   4.208  -0.319  0.00  0.00     0.177 HD
ENDBRANCH  11  12
ENDBRANCH   1  11
TORSDOF 7
