@<TRIPOS>MOLECULE
*****
 27 26 0 0 0
SMALL
GASTEIGER

@<TRIPOS>ATOM
      1 N          -3.2427   -0.7455   -0.3221 N.3     1  ARG1       -0.3184
      2 CA         -2.1115   -0.0265    0.2604 C.3     1  ARG1        0.1033
      3 HA         -1.2390   -0.6872    0.1978 H       1  ARG1        0.0574
      4 C          -2.4185    0.1846    1.7245 C.2     1  ARG1        0.3217
      5 O          -1.8038   -0.3475    2.6387 O.2     1  ARG1       -0.2493
      6 OXT        -3.4637    1.0285    1.9129 O.3     1  ARG1       -0.4795
      7 CB         -1.8107    1.2982   -0.4621 C.3     1  ARG1       -0.0245
      8 CG         -0.3370    1.6961   -0.2846 C.3     1  ARG1       -0.0203
      9 CD          0.0399    2.9164   -1.1185 C.3     1  ARG1        0.0646
     10 NE          1.4269    3.3528   -0.8514 N.pl3   1  ARG1       -0.2787
     11 CZ          2.5576    2.6680   -1.3027 C.cat   1  ARG1        0.3410
     12 NH1         2.4735    1.6382   -2.2315 N.pl3   1  ARG1       -0.2919
     13 HH11        3.3091    1.1476   -2.5432 H       1  ARG1        0.2545
     14 HH12        1.5842    1.3316   -2.6140 H       1  ARG1        0.2545
     15 NH2         3.8085    3.0245   -0.8122 N.pl3   1  ARG1       -0.2919
     16 H1         -3.3100   -1.6687    0.1097 H       1  ARG1        0.1190
     17 H2         -4.1130   -0.2655   -0.0956 H       1  ARG1        0.1190
     18 HXT        -3.4035    1.4961    2.7725 H       1  ARG1        0.2951
     19 HB1        -2.4541    2.1062   -0.0890 H       1  ARG1        0.0286
     20 HB2        -2.0291    1.2041   -1.5326 H       1  ARG1        0.0286
     21 HG1         0.3057    0.8552   -0.5707 H       1  ARG1        0.0296
     22 HG2        -0.1502    1.9137    0.7732 H       1  ARG1        0.0296
     23 HD1        -0.6102    3.7609   -0.8675 H       1  ARG1        0.0655
     24 HD2        -0.0638    2.7266   -2.1912 H       1  ARG1        0.0655
     25 HE          1.5761    4.2079   -0.3186 H       1  ARG1        0.2578
     26 HH21        4.5641    2.3448   -0.7670 H       1  ARG1        0.2545
     27 HH22        4.0006    3.9711   -0.4943 H       1  ARG1        0.2545
@<TRIPOS>BOND
     1     2     1    1
     2     2     3    1
     3     4     2    1
     4     5     4    2
     5     6     4    1
     6     7     2    1
     7     8     7    1
     8     9     8    1
     9    10     9    1
    10    11    10    1
    11    12    11    2
    12    12    13    1
    13    12    14    1
    14    15    11    1
    15     1    16    1
    16     1    17    1
    17     6    18    1
    18     7    19    1
    19     7    20    1
    20     8    21    1
    21     8    22    1
    22     9    23    1
    23     9    24    1
    24    10    25    1
    25    15    26    1
    26    15    27    1
