@<TRIPOS>MOLECULE
2JUK_G0B_A_23
 124 127 0 0 0
SMALL
GASTEIGER

@<TRIPOS>ATOM
      1 C           1.8891  -10.7042    1.2042 C.3     1  UNL1        0.1961
      2 H           1.8566  -10.4551    0.1384 H       1  UNL1        0.0947
      3 O           0.5197  -10.9222    1.5734 O.3     1  UNL1       -0.3386
      4 C          -0.0193  -11.2951    2.8689 C.3     1  UNL1        0.1237
      5 H          -1.0696  -11.3621    2.5396 H       1  UNL1        0.0659
      6 C          -0.1394  -10.2809    4.1215 C.3     1  UNL1        0.1202
      7 H          -0.5557   -9.3360    3.7489 H       1  UNL1        0.0651
      8 C          -1.1980  -10.8901    5.0919 C.3     1  UNL1        0.1172
      9 H          -1.3224  -10.2303    5.9576 H       1  UNL1        0.0655
     10 C          -0.7061  -12.2760    5.5840 C.3     1  UNL1        0.1071
     11 H          -1.4218  -12.6772    6.3021 H       1  UNL1        0.0720
     12 N           0.6332  -12.1020    6.2638 N.pl3   1  UNL1       -0.2733
     13 C           1.0692  -12.6167    7.4248 C.cat   1  UNL1        0.3413
     14 N           0.2718  -13.2681    8.2402 N.pl3   1  UNL1       -0.2919
     15 H           0.6019  -13.6212    9.1362 H       1  UNL1        0.2545
     16 H          -0.7315  -13.3114    8.1144 H       1  UNL1        0.2545
     17 N           2.3635  -12.4524    7.7439 N.pl3   1  UNL1       -0.2919
     18 C          -0.6372  -13.2511    4.3834 C.3     1  UNL1        0.0193
     19 C           0.3170  -12.7520    3.3069 C.3     1  UNL1        0.1074
     20 H           0.2662  -13.3746    2.4058 H       1  UNL1        0.0720
     21 N           1.6787  -12.8704    3.8955 N.pl3   1  UNL1       -0.2733
     22 C           2.5444  -13.8947    3.8204 C.cat   1  UNL1        0.3413
     23 N           3.7364  -13.7440    4.4055 N.pl3   1  UNL1       -0.2919
     24 H           4.4470  -14.4716    4.3772 H       1  UNL1        0.2545
     25 H           4.0560  -12.9074    4.8868 H       1  UNL1        0.2545
     26 N           2.3308  -14.9469    3.0420 N.pl3   1  UNL1       -0.2919
     27 O          -2.4311  -10.9740    4.3848 O.3     1  UNL1       -0.3857
     28 O           1.0713  -10.0002    4.9724 O.3     1  UNL1       -0.3401
     29 C           2.0911   -9.4419    4.1616 C.3     1  UNL1        0.1884
     30 H           2.2125  -10.3770    3.6728 H       1  UNL1        0.0938
     31 C           1.5984   -8.0545    3.0175 C.3     1  UNL1        0.1345
     32 H           0.7402   -8.2138    2.3620 H       1  UNL1        0.0671
     33 C           3.3389   -7.3777    2.0969 C.3     1  UNL1        0.1206
     34 H           3.5580   -6.3030    1.9580 H       1  UNL1        0.0651
     35 C           4.8476   -8.1003    3.3343 C.3     1  UNL1        0.1135
     36 H           5.5234   -8.7055    2.7296 H       1  UNL1        0.0647
     37 O           3.8489   -9.1871    4.6009 O.3     1  UNL1       -0.3405
     38 C           5.7972   -7.4391    4.3754 C.3     1  UNL1        0.0730
     39 O           6.6477   -6.5822    3.6575 O.3     1  UNL1       -0.3924
     40 O           3.4639   -7.8973    0.6872 O.3     1  UNL1       -0.3393
     41 C           2.3888   -7.7841   -0.2541 C.3     1  UNL1        0.1960
     42 H           2.6354   -8.4768   -1.0718 H       1  UNL1        0.0947
     43 C           2.5026   -6.3591   -0.7203 C.3     1  UNL1        0.1543
     44 H           2.3693   -5.7344    0.1704 H       1  UNL1        0.0770
     45 C           1.4085   -6.0466   -1.7169 C.3     1  UNL1        0.1215
     46 H           1.6373   -6.4477   -2.7097 H       1  UNL1        0.0656
     47 C           0.0322   -6.5560   -1.2346 C.3     1  UNL1        0.1135
     48 H          -0.2457   -5.9536   -0.3609 H       1  UNL1        0.0647
     49 C           0.0734   -8.0212   -0.8092 C.3     1  UNL1        0.1204
     50 H           0.3548   -8.6695   -1.6519 H       1  UNL1        0.0655
     51 O           1.0787   -8.1212    0.2112 O.3     1  UNL1       -0.3389
     52 C          -1.3166   -8.5527   -0.3262 C.3     1  UNL1        0.0933
     53 N          -1.8841   -7.8584    0.8555 N.pl3   1  UNL1       -0.2761
     54 C          -2.6140   -6.7206    0.8014 C.cat   1  UNL1        0.3411
     55 N          -2.8783   -6.0932   -0.3360 N.pl3   1  UNL1       -0.2919
     56 H          -3.4644   -5.2645   -0.3805 H       1  UNL1        0.2545
     57 H          -2.5549   -6.4253   -1.2476 H       1  UNL1        0.2545
     58 N          -3.0286   -6.1691    1.9498 N.pl3   1  UNL1       -0.2919
     59 O          -0.9834   -6.3990   -2.2138 O.3     1  UNL1       -0.3864
     60 O           1.3648   -4.6209   -1.7783 O.3     1  UNL1       -0.3855
     61 N           3.8870   -6.1271   -1.2408 N.pl3   1  UNL1       -0.2685
     62 C           4.6495   -5.0523   -0.9961 C.cat   1  UNL1        0.3414
     63 N           5.9176   -5.0480   -1.3947 N.pl3   1  UNL1       -0.2919
     64 H           6.5113   -4.2299   -1.2805 H       1  UNL1        0.2545
     65 H           6.3435   -5.7972   -1.9315 H       1  UNL1        0.2545
     66 N           4.1648   -4.0012   -0.3361 N.pl3   1  UNL1       -0.2919
     67 O           0.8870   -7.6110    4.3340 O.3     1  UNL1       -0.3841
     68 C           2.8120  -11.8735    1.3007 C.3     1  UNL1        0.1543
     69 H           2.4948  -12.3683    2.1697 H       1  UNL1        0.0770
     70 N           2.6421  -12.9410    0.3112 N.pl3   1  UNL1       -0.2685
     71 C           1.5358  -13.3193   -0.3610 C.cat   1  UNL1        0.3414
     72 N           0.3661  -12.6565   -0.3189 N.pl3   1  UNL1       -0.2919
     73 H          -0.4274  -13.0054   -0.8572 H       1  UNL1        0.2545
     74 H           0.1806  -11.8116    0.1960 H       1  UNL1        0.2545
     75 N           1.5831  -14.4538   -1.0210 N.pl3   1  UNL1       -0.2919
     76 C           4.2633  -11.5438    1.6341 C.3     1  UNL1        0.1215
     77 H           4.7631  -10.9832    0.8400 H       1  UNL1        0.0656
     78 O           4.9939  -12.7626    1.7637 O.3     1  UNL1       -0.3855
     79 C           4.2956  -10.7441    2.9657 C.3     1  UNL1        0.1135
     80 H           3.7801  -11.3146    3.7264 H       1  UNL1        0.0647
     81 O           5.6148  -10.6837    3.4855 O.3     1  UNL1       -0.3864
     82 C           3.4074   -9.2162    2.6631 C.3     1  UNL1        0.1204
     83 H           4.1335   -9.1302    1.8592 H       1  UNL1        0.0655
     84 O           2.2575   -9.5922    1.8354 O.3     1  UNL1       -0.3389
     85 C           3.1346   -7.4427    3.9627 C.3     1  UNL1        0.0933
     86 N           2.1290   -5.9329    3.3885 N.pl3   1  UNL1       -0.2761
     87 C           0.8097   -5.4367    3.2433 C.cat   1  UNL1        0.3411
     88 N           0.5649   -4.3299    2.5486 N.pl3   1  UNL1       -0.2919
     89 H          -0.3985   -4.0034    2.4984 H       1  UNL1        0.2545
     90 H           1.2468   -3.7479    2.0919 H       1  UNL1        0.2545
     91 N          -0.3244   -6.0290    3.6768 N.pl3   1  UNL1       -0.2919
     92 H           1.1295  -11.2362    6.0452 H       1  UNL1        0.2581
     93 H           3.0396  -11.9057    7.2316 H       1  UNL1        0.2545
     94 H           2.7159  -12.8340    8.6232 H       1  UNL1        0.2545
     95 H          -1.6334  -13.3936    3.9442 H       1  UNL1        0.0334
     96 H          -0.2919  -14.2350    4.7154 H       1  UNL1        0.0334
     97 H           1.9948  -12.1125    4.4738 H       1  UNL1        0.2581
     98 H           1.4551  -15.1212    2.5637 H       1  UNL1        0.2545
     99 H           2.9879  -15.7256    3.0332 H       1  UNL1        0.2545
    100 H          -3.0302  -11.6299    4.8017 H       1  UNL1        0.2100
    101 H           5.3139   -6.8943    5.1942 H       1  UNL1        0.0584
    102 H           6.3458   -8.2402    4.9002 H       1  UNL1        0.0584
    103 H           7.0543   -5.9674    4.3052 H       1  UNL1        0.2095
    104 H          -1.2337   -9.6082   -0.0361 H       1  UNL1        0.0682
    105 H          -2.0624   -8.5323   -1.1300 H       1  UNL1        0.0682
    106 H          -1.9917   -8.3908    1.7094 H       1  UNL1        0.2579
    107 H          -2.9212   -6.6228    2.8447 H       1  UNL1        0.2545
    108 H          -3.6378   -5.3532    1.9300 H       1  UNL1        0.2545
    109 H          -0.6821   -5.7421   -2.8782 H       1  UNL1        0.2100
    110 H           1.9494   -4.3324   -2.5085 H       1  UNL1        0.2100
    111 H           4.4119   -6.9282   -1.5861 H       1  UNL1        0.2583
    112 H           3.1726   -3.8696   -0.2081 H       1  UNL1        0.2545
    113 H           4.7556   -3.1880   -0.1797 H       1  UNL1        0.2545
    114 H           1.3898   -7.0495    4.9744 H       1  UNL1        0.2101
    115 H           3.4828  -13.4826    0.1085 H       1  UNL1        0.2583
    116 H           2.4049  -15.0513   -1.0339 H       1  UNL1        0.2545
    117 H           0.8126  -14.7755   -1.6050 H       1  UNL1        0.2545
    118 H           4.4834  -13.4658    2.1872 H       1  UNL1        0.2100
    119 H           6.2924  -10.6160    2.7803 H       1  UNL1        0.2100
    120 H           3.9269   -6.6532    3.9903 H       1  UNL1        0.0682
    121 H           2.9967   -7.5073    5.0778 H       1  UNL1        0.0682
    122 H           2.7858   -5.1538    3.2107 H       1  UNL1        0.2579
    123 H          -0.2603   -6.9417    4.0936 H       1  UNL1        0.2545
    124 H          -1.0887   -5.4671    4.0539 H       1  UNL1        0.2545
@<TRIPOS>BOND
     1     1    68    1
     2     1    84    1
     3     1     3    1
     4     1     2    1
     5     4     6    1
     6     4     5    1
     7     4     3    1
     8     6     8    1
     9     6    28    1
    10     6     7    1
    11     8    10    1
    12     8    27    1
    13     8     9    1
    14    10    11    1
    15    10    12    1
    16    10    18    1
    17    12    13    1
    18    12    92    1
    19    13    14    2
    20    13    17    1
    21    14    15    1
    22    14    16    1
    23    17    93    1
    24    17    94    1
    25    18    19    1
    26    18    95    1
    27    18    96    1
    28    19    20    1
    29    19     4    1
    30    19    21    1
    31    21    22    1
    32    21    97    1
    33    22    23    2
    34    22    26    1
    35    23    24    1
    36    23    25    1
    37    26    98    1
    38    26    99    1
    39    27   100    1
    40    28    29    1
    41    29    30    1
    42    29    31    1
    43    29    37    1
    44    31    32    1
    45    31    67    1
    46    33    31    1
    47    33    34    1
    48    33    40    1
    49    35    33    1
    50    35    37    1
    51    35    38    1
    52    35    36    1
    53    38    39    1
    54    38   101    1
    55    38   102    1
    56    39   103    1
    57    41    43    1
    58    41    51    1
    59    41    42    1
    60    41    40    1
    61    43    44    1
    62    43    45    1
    63    43    61    1
    64    45    46    1
    65    45    47    1
    66    45    60    1
    67    47    49    1
    68    47    59    1
    69    47    48    1
    70    49    50    1
    71    49    51    1
    72    49    52    1
    73    52    53    1
    74    52   104    1
    75    52   105    1
    76    53    54    1
    77    53   106    1
    78    54    55    2
    79    54    58    1
    80    55    56    1
    81    55    57    1
    82    58   107    1
    83    58   108    1
    84    59   109    1
    85    60   110    1
    86    61    62    1
    87    61   111    1
    88    62    63    2
    89    62    66    1
    90    63    64    1
    91    63    65    1
    92    66   112    1
    93    66   113    1
    94    67   114    1
    95    68    69    1
    96    68    70    1
    97    68    76    1
    98    70    71    1
    99    70   115    1
   100    71    72    2
   101    71    75    1
   102    72    73    1
   103    72    74    1
   104    75   116    1
   105    75   117    1
   106    76    77    1
   107    76    78    1
   108    76    79    1
   109    78   118    1
   110    79    82    1
   111    79    81    1
   112    79    80    1
   113    81   119    1
   114    82    83    1
   115    82    84    1
   116    82    85    1
   117    85    86    1
   118    85   120    1
   119    85   121    1
   120    86    87    1
   121    86   122    1
   122    87    88    2
   123    87    91    1
   124    88    89    1
   125    88    90    1
   126    91   123    1
   127    91   124    1
