REMARK  8 active torsions:
REMARK  status: ('A' for Active; 'I' for Inactive)
REMARK    1  A    between atoms: P_1  and  O_3 
REMARK    2  A    between atoms: C_8  and  N_35 
REMARK    3  A    between atoms: C_9  and  O_34 
REMARK    4  A    between atoms: P_12  and  O_14 
REMARK    5  A    between atoms: C_19  and  N_24 
REMARK    6  A    between atoms: C_20  and  O_23 
REMARK    7  A    between atoms: C_28  and  N_29 
REMARK    8  A    between atoms: C_39  and  N_40 
ROOT
ATOM      1  P   UNL d   1      -3.752   0.493   0.325  0.00  0.00     0.393 P 
ATOM      2  O   UNL d   1      -4.465  -0.735   0.801  0.00  0.00    -0.631 OA
ATOM      3  O   UNL d   1      -2.188   0.538   0.722  0.00  0.00    -0.294 OA
ATOM      4  C   UNL d   1      -1.591   1.716   1.239  0.00  0.00     0.215 C 
ATOM      5  C   UNL d   1      -0.088   1.621   1.065  0.00  0.00     0.180 C 
ATOM      6  O   UNL d   1       0.408   0.369   1.565  0.00  0.00    -0.353 OA
ATOM      7  C   UNL d   1       1.434  -0.102   0.663  0.00  0.00     0.262 C 
ATOM      8  C   UNL d   1       1.772   1.091  -0.235  0.00  0.00     0.199 C 
ATOM      9  C   UNL d   1       0.394   1.707  -0.377  0.00  0.00     0.197 C 
ATOM     10  O   UNL d   1       0.440   3.051  -0.804  0.00  0.00    -0.286 OA
ATOM     11  P   UNL d   1      -0.351   3.564  -2.122  0.00  0.00     0.393 P 
ATOM     12  O   UNL d   1      -0.380   5.060  -2.258  0.00  0.00    -0.631 OA
ATOM     13  O   UNL d   1      -1.826   2.887  -2.034  0.00  0.00    -0.294 OA
ATOM     14  C   UNL d   1      -2.296   2.095  -3.116  0.00  0.00     0.215 C 
ATOM     15  C   UNL d   1      -3.819   2.095  -3.197  0.00  0.00     0.180 C 
ATOM     16  O   UNL d   1      -4.144   1.350  -4.398  0.00  0.00    -0.353 OA
ATOM     17  C   UNL d   1      -4.668   0.084  -3.966  0.00  0.00     0.262 C 
ATOM     18  C   UNL d   1      -5.532   0.447  -2.775  0.00  0.00     0.199 C 
ATOM     19  C   UNL d   1      -4.586   1.403  -2.046  0.00  0.00     0.197 C 
ATOM     20  O   UNL d   1      -3.674   0.636  -1.278  0.00  0.00    -0.286 OA
ENDROOT
BRANCH   7  21
ATOM     21  N   UNL d   1       2.461  -0.709   1.478  0.00  0.00    -0.294 N 
ATOM     22  C   UNL d   1       3.589  -0.130   1.989  0.00  0.00     0.214 C 
ATOM     23  N   UNL d   1       4.270  -0.982   2.730  0.00  0.00    -0.236 NA
ATOM     24  C   UNL d   1       3.379  -2.008   2.975  0.00  0.00     0.144 C 
ATOM     25  C   UNL d   1       3.600  -3.243   3.621  0.00  0.00     0.135 C 
ATOM     26  C   UNL d   1       2.426  -2.002   1.962  0.00  0.00     0.166 C 
ATOM     27  N   UNL d   1       2.614  -4.180   3.503  0.00  0.00    -0.228 NA
ATOM     28  C   UNL d   1       1.657  -3.990   2.567  0.00  0.00     0.237 C 
ATOM     29  N   UNL d   1       1.469  -2.926   1.762  0.00  0.00    -0.222 NA
BRANCH  25  30
ATOM     30  N   UNL d   1       4.519  -3.343   4.685  0.00  0.00    -0.285 NA
ATOM     31  H   UNL d   1       4.378  -2.600   5.366  0.00  0.00     0.125 HD
ATOM     32  H   UNL d   1       5.475  -3.317   4.335  0.00  0.00     0.125 HD
ENDBRANCH  25  30
ENDBRANCH   7  21
BRANCH   8  33
ATOM     33  O   UNL d   1       2.276   0.643  -1.484  0.00  0.00    -0.388 OA
ATOM     34  H   UNL d   1       2.789   1.371  -1.876  0.00  0.00     0.210 HD
ENDBRANCH   8  33
BRANCH  11  35
ATOM     35  O   UNL d   1       0.418   2.808  -3.331  0.00  0.00    -0.307 OA
ATOM     36  H   UNL d   1       1.289   2.390  -3.165  0.00  0.00     0.222 HD
ENDBRANCH  11  35
BRANCH   1  37
ATOM     37  O   UNL d   1      -4.365   1.886   0.867  0.00  0.00    -0.307 OA
ATOM     38  H   UNL d   1      -4.323   2.068   1.830  0.00  0.00     0.222 HD
ENDBRANCH   1  37
BRANCH  18  39
ATOM     39  O   UNL d   1      -6.708   1.151  -3.160  0.00  0.00    -0.388 OA
ATOM     40  H   UNL d   1      -6.456   1.832  -3.808  0.00  0.00     0.210 HD
ENDBRANCH  18  39
BRANCH  17  41
ATOM     41  N   UNL d   1      -5.221  -0.598  -5.107  0.00  0.00    -0.294 N 
ATOM     42  C   UNL d   1      -5.952  -0.053  -6.134  0.00  0.00     0.214 C 
ATOM     43  N   UNL d   1      -5.846  -0.776  -7.235  0.00  0.00    -0.236 NA
ATOM     44  C   UNL d   1      -4.813  -1.642  -6.949  0.00  0.00     0.144 C 
ATOM     45  C   UNL d   1      -4.090  -2.541  -7.749  0.00  0.00     0.135 C 
ATOM     46  C   UNL d   1      -4.743  -1.803  -5.574  0.00  0.00     0.166 C 
ATOM     47  N   UNL d   1      -3.322  -3.463  -7.096  0.00  0.00    -0.228 NA
ATOM     48  C   UNL d   1      -3.421  -3.562  -5.751  0.00  0.00     0.237 C 
ATOM     49  N   UNL d   1      -4.042  -2.727  -4.900  0.00  0.00    -0.222 NA
BRANCH  45  50
ATOM     50  N   UNL d   1      -3.772  -2.214  -9.083  0.00  0.00    -0.285 NA
ATOM     51  H   UNL d   1      -2.786  -2.406  -9.252  0.00  0.00     0.125 HD
ATOM     52  H   UNL d   1      -3.943  -1.230  -9.274  0.00  0.00     0.125 HD
ENDBRANCH  45  50
ENDBRANCH  17  41
TORSDOF 8
