@<TRIPOS>MOLECULE
2B57_6AP_A_91
 17 18 0 0 0
SMALL
GASTEIGER

@<TRIPOS>ATOM
      1 N          -2.2127   -0.8437    0.2615 N.ar    1  UNL1       -0.3291
      2 H          -2.6874   -1.7341    0.2020 H       1  UNL1        0.1682
      3 C          -2.7874    0.3963    0.1595 C.ar    1  UNL1        0.0957
      4 N          -1.8840    1.3551    0.1199 N.ar    1  UNL1       -0.2308
      5 C          -0.6795    0.6991    0.0674 C.ar    1  UNL1        0.1471
      6 C          -0.8753   -0.6636    0.0832 C.ar    1  UNL1        0.1646
      7 N           0.0565   -1.6120    0.0534 N.ar    1  UNL1       -0.1951
      8 C           1.2990   -1.0950   -0.0219 C.ar    1  UNL1        0.2162
      9 N           2.3521   -2.0160    0.0341 N.pl3   1  UNL1       -0.3274
     10 N           1.6233    0.2202   -0.0286 N.ar    1  UNL1       -0.1978
     11 C           0.6385    1.1490    0.0113 C.ar    1  UNL1        0.1490
     12 N           0.9460    2.5103    0.0068 N.pl3   1  UNL1       -0.3413
     13 H          -3.8530    0.5328    0.2805 H       1  UNL1        0.1027
     14 H           3.1081   -1.6939   -0.5632 H       1  UNL1        0.1452
     15 H           1.9819   -2.9103   -0.2784 H       1  UNL1        0.1452
     16 H           0.3272    3.0011   -0.6353 H       1  UNL1        0.1438
     17 H           1.9261    2.6514   -0.2306 H       1  UNL1        0.1438
@<TRIPOS>BOND
     1     1     2    1
     2     3     1   ar
     3     4     3   ar
     4     5     4   ar
     5     6     5   ar
     6     6     1   ar
     7     7     6   ar
     8     8     7   ar
     9     9     8    1
    10    10     8   ar
    11    11    10   ar
    12    11     5   ar
    13    12    11    1
    14     3    13    1
    15     9    14    1
    16     9    15    1
    17    12    16    1
    18    12    17    1
