@<TRIPOS>MOLECULE
2ET5_RIO_A_54
 65 67 0 0 0
SMALL
GASTEIGER

@<TRIPOS>ATOM
      1 O           4.5113    6.1756    7.0830 O.3     1  UNL1       -0.3924
      2 C           4.1598    7.4301    6.5173 C.3     1  UNL1        0.0730
      3 C           4.9503    7.6576    5.2319 C.3     1  UNL1        0.1131
      4 H           5.9169    8.0805    5.5058 H       1  UNL1        0.0647
      5 O           5.2163    6.4357    4.5286 O.3     1  UNL1       -0.3405
      6 C           4.2596    6.2859    3.4614 C.3     1  UNL1        0.1884
      7 H           4.7883    6.2598    2.5153 H       1  UNL1        0.0938
      8 O           3.4889    5.1212    3.7056 O.3     1  UNL1       -0.3402
      9 C           3.4793    4.0407    2.7898 C.3     1  UNL1        0.1166
     10 H           2.5788    3.5272    3.1179 H       1  UNL1        0.0650
     11 C           4.5670    2.9819    3.0040 C.3     1  UNL1        0.0990
     12 H           4.6320    2.7412    4.0700 H       1  UNL1        0.0636
     13 O           4.1369    1.7822    2.3364 O.3     1  UNL1       -0.3876
     14 C           5.9412    3.3392    2.4264 C.3     1  UNL1        0.0351
     15 H           6.4677    2.4181    2.1482 H       1  UNL1        0.0485
     16 N           6.7213    3.9894    3.4901 N.3     1  UNL1       -0.3250
     17 C           5.8531    4.2451    1.1937 C.3     1  UNL1       -0.0175
     18 C           4.5128    4.1848    0.4534 C.3     1  UNL1        0.0355
     19 H           4.4422    3.2093   -0.0484 H       1  UNL1        0.0485
     20 N           4.5593    5.1820   -0.6261 N.3     1  UNL1       -0.3250
     21 C           3.2362    4.3872    1.3151 C.3     1  UNL1        0.1055
     22 H           2.8616    5.3956    1.2028 H       1  UNL1        0.0639
     23 O           2.2673    3.4313    0.8475 O.3     1  UNL1       -0.3422
     24 C           0.8987    3.7491    0.5617 C.3     1  UNL1        0.1776
     25 H           0.8173    3.6342   -0.5273 H       1  UNL1        0.0927
     26 O           0.0306    2.6963    1.0902 O.3     1  UNL1       -0.3425
     27 C          -0.1506    2.7401    2.5253 C.3     1  UNL1        0.1022
     28 H           0.8244    2.7214    3.0089 H       1  UNL1        0.0636
     29 C          -0.8886    1.4601    2.9637 C.3     1  UNL1        0.0222
     30 N          -0.8077    1.2513    4.4104 N.3     1  UNL1       -0.3276
     31 C          -0.8909    4.0371    2.8745 C.3     1  UNL1        0.1100
     32 H          -1.8948    4.0236    2.4213 H       1  UNL1        0.0646
     33 O          -1.0929    4.1460    4.2825 O.3     1  UNL1       -0.3866
     34 C          -0.0784    5.2463    2.3889 C.3     1  UNL1        0.1033
     35 H           0.8414    5.3477    2.9717 H       1  UNL1        0.0637
     36 O          -0.8642    6.4214    2.6185 O.3     1  UNL1       -0.3874
     37 C           0.2199    5.1135    0.8777 C.3     1  UNL1        0.0853
     38 H          -0.7538    5.0876    0.3654 H       1  UNL1        0.0535
     39 N           0.8883    6.2987    0.3298 N.3     1  UNL1       -0.3211
     40 C           3.3456    7.5016    3.5125 C.3     1  UNL1        0.1341
     41 H           2.4326    7.2539    4.0754 H       1  UNL1        0.0671
     42 O           2.9769    7.9588    2.2250 O.3     1  UNL1       -0.3841
     43 C           4.2024    8.5191    4.2382 C.3     1  UNL1        0.1141
     44 H           3.6252    9.3295    4.6788 H       1  UNL1        0.0648
     45 O           5.1607    9.0900    3.3489 O.3     1  UNL1       -0.3864
     46 H           3.8904    6.0032    7.8165 H       1  UNL1        0.2095
     47 H           4.3822    8.2177    7.2536 H       1  UNL1        0.0584
     48 H           3.0769    7.4454    6.3496 H       1  UNL1        0.0584
     49 H           4.3835    1.0296    2.9004 H       1  UNL1        0.2100
     50 H           7.6761    4.1451    3.1692 H       1  UNL1        0.1185
     51 H           6.8051    3.3445    4.2812 H       1  UNL1        0.1185
     52 H           6.0984    5.2785    1.4631 H       1  UNL1        0.0297
     53 H           6.6557    3.9603    0.4935 H       1  UNL1        0.0297
     54 H           5.1540    4.8401   -1.3789 H       1  UNL1        0.1185
     55 H           4.9998    6.0397   -0.2739 H       1  UNL1        0.1185
     56 H          -0.4315    0.5900    2.4760 H       1  UNL1        0.0448
     57 H          -1.9424    1.5029    2.6611 H       1  UNL1        0.0448
     58 H          -1.3076    0.4002    4.6646 H       1  UNL1        0.1183
     59 H           0.1651    1.1100    4.6920 H       1  UNL1        0.1183
     60 H          -0.2327    4.2837    4.7189 H       1  UNL1        0.2100
     61 H          -0.8313    6.5964    3.5770 H       1  UNL1        0.2100
     62 H           0.3678    7.1379    0.5904 H       1  UNL1        0.1187
     63 H           0.8652    6.2601   -0.6939 H       1  UNL1        0.1187
     64 H           2.0365    8.2117    2.2702 H       1  UNL1        0.2101
     65 H           5.4630    9.9249    3.7427 H       1  UNL1        0.2100
@<TRIPOS>BOND
     1     1     2    1
     2     1    46    1
     3     2     3    1
     4     2    47    1
     5     2    48    1
     6     3     4    1
     7     3     5    1
     8     3    43    1
     9     5     6    1
    10     6    40    1
    11     6     8    1
    12     6     7    1
    13     9    11    1
    14     9    10    1
    15     9     8    1
    16    11    12    1
    17    11    13    1
    18    11    14    1
    19    13    49    1
    20    14    15    1
    21    14    16    1
    22    14    17    1
    23    16    50    1
    24    16    51    1
    25    17    18    1
    26    17    52    1
    27    17    53    1
    28    18    19    1
    29    18    20    1
    30    18    21    1
    31    20    54    1
    32    20    55    1
    33    21     9    1
    34    21    23    1
    35    21    22    1
    36    23    24    1
    37    24    25    1
    38    24    26    1
    39    24    37    1
    40    26    27    1
    41    27    28    1
    42    27    29    1
    43    27    31    1
    44    29    30    1
    45    29    56    1
    46    29    57    1
    47    30    58    1
    48    30    59    1
    49    31    33    1
    50    31    32    1
    51    33    60    1
    52    34    31    1
    53    34    35    1
    54    34    36    1
    55    36    61    1
    56    37    34    1
    57    37    39    1
    58    37    38    1
    59    39    62    1
    60    39    63    1
    61    40    41    1
    62    40    42    1
    63    40    43    1
    64    42    64    1
    65    43    44    1
    66    43    45    1
    67    45    65    1
