2ET5_RIO_A_54
  1228              3D

 65 67  0  0  0  0  0  0  0  0999 V2000
    4.5113    6.1756    7.0830 O   0  0  0  0  0  0  0  0  0  0  0  0
    4.1598    7.4301    6.5173 C   0  0  0  0  0  0  0  0  0  0  0  0
    4.9503    7.6576    5.2319 C   0  0  0  0  0  0  0  0  0  0  0  0
    5.9169    8.0805    5.5058 H   0  0  0  0  0  0  0  0  0  0  0  0
    5.2163    6.4357    4.5286 O   0  0  0  0  0  0  0  0  0  0  0  0
    4.2596    6.2859    3.4614 C   0  0  0  0  0  0  0  0  0  0  0  0
    4.7883    6.2598    2.5153 H   0  0  0  0  0  0  0  0  0  0  0  0
    3.4889    5.1212    3.7056 O   0  0  0  0  0  0  0  0  0  0  0  0
    3.4793    4.0407    2.7898 C   0  0  0  0  0  0  0  0  0  0  0  0
    2.5788    3.5272    3.1179 H   0  0  0  0  0  0  0  0  0  0  0  0
    4.5670    2.9819    3.0040 C   0  0  0  0  0  0  0  0  0  0  0  0
    4.6320    2.7412    4.0700 H   0  0  0  0  0  0  0  0  0  0  0  0
    4.1369    1.7822    2.3364 O   0  0  0  0  0  0  0  0  0  0  0  0
    5.9412    3.3392    2.4264 C   0  0  0  0  0  0  0  0  0  0  0  0
    6.4677    2.4181    2.1482 H   0  0  0  0  0  0  0  0  0  0  0  0
    6.7213    3.9894    3.4901 N   0  0  0  0  0  0  0  0  0  0  0  0
    5.8531    4.2451    1.1937 C   0  0  0  0  0  0  0  0  0  0  0  0
    4.5128    4.1848    0.4534 C   0  0  0  0  0  0  0  0  0  0  0  0
    4.4422    3.2093   -0.0484 H   0  0  0  0  0  0  0  0  0  0  0  0
    4.5593    5.1820   -0.6261 N   0  0  0  0  0  0  0  0  0  0  0  0
    3.2362    4.3872    1.3151 C   0  0  0  0  0  0  0  0  0  0  0  0
    2.8616    5.3956    1.2028 H   0  0  0  0  0  0  0  0  0  0  0  0
    2.2673    3.4313    0.8475 O   0  0  0  0  0  0  0  0  0  0  0  0
    0.8987    3.7491    0.5617 C   0  0  0  0  0  0  0  0  0  0  0  0
    0.8173    3.6342   -0.5273 H   0  0  0  0  0  0  0  0  0  0  0  0
    0.0306    2.6963    1.0902 O   0  0  0  0  0  0  0  0  0  0  0  0
   -0.1506    2.7401    2.5253 C   0  0  0  0  0  0  0  0  0  0  0  0
    0.8244    2.7214    3.0089 H   0  0  0  0  0  0  0  0  0  0  0  0
   -0.8886    1.4601    2.9637 C   0  0  0  0  0  0  0  0  0  0  0  0
   -0.8077    1.2513    4.4104 N   0  0  0  0  0  0  0  0  0  0  0  0
   -0.8909    4.0371    2.8745 C   0  0  0  0  0  0  0  0  0  0  0  0
   -1.8948    4.0236    2.4213 H   0  0  0  0  0  0  0  0  0  0  0  0
   -1.0929    4.1460    4.2825 O   0  0  0  0  0  0  0  0  0  0  0  0
   -0.0784    5.2463    2.3889 C   0  0  0  0  0  0  0  0  0  0  0  0
    0.8414    5.3477    2.9717 H   0  0  0  0  0  0  0  0  0  0  0  0
   -0.8642    6.4214    2.6185 O   0  0  0  0  0  0  0  0  0  0  0  0
    0.2199    5.1135    0.8777 C   0  0  0  0  0  0  0  0  0  0  0  0
   -0.7538    5.0876    0.3654 H   0  0  0  0  0  0  0  0  0  0  0  0
    0.8883    6.2987    0.3298 N   0  0  0  0  0  0  0  0  0  0  0  0
    3.3456    7.5016    3.5125 C   0  0  0  0  0  0  0  0  0  0  0  0
    2.4326    7.2539    4.0754 H   0  0  0  0  0  0  0  0  0  0  0  0
    2.9769    7.9588    2.2250 O   0  0  0  0  0  0  0  0  0  0  0  0
    4.2024    8.5191    4.2382 C   0  0  0  0  0  0  0  0  0  0  0  0
    3.6252    9.3295    4.6788 H   0  0  0  0  0  0  0  0  0  0  0  0
    5.1607    9.0900    3.3489 O   0  0  0  0  0  0  0  0  0  0  0  0
    3.8904    6.0032    7.8165 H   0  0  0  0  0  0  0  0  0  0  0  0
    4.3822    8.2177    7.2536 H   0  0  0  0  0  0  0  0  0  0  0  0
    3.0769    7.4454    6.3496 H   0  0  0  0  0  0  0  0  0  0  0  0
    4.3835    1.0296    2.9004 H   0  0  0  0  0  0  0  0  0  0  0  0
    7.6761    4.1451    3.1692 H   0  0  0  0  0  0  0  0  0  0  0  0
    6.8051    3.3445    4.2812 H   0  0  0  0  0  0  0  0  0  0  0  0
    6.0984    5.2785    1.4631 H   0  0  0  0  0  0  0  0  0  0  0  0
    6.6557    3.9603    0.4935 H   0  0  0  0  0  0  0  0  0  0  0  0
    5.1540    4.8401   -1.3789 H   0  0  0  0  0  0  0  0  0  0  0  0
    4.9998    6.0397   -0.2739 H   0  0  0  0  0  0  0  0  0  0  0  0
   -0.4315    0.5900    2.4760 H   0  0  0  0  0  0  0  0  0  0  0  0
   -1.9424    1.5029    2.6611 H   0  0  0  0  0  0  0  0  0  0  0  0
   -1.3076    0.4002    4.6646 H   0  0  0  0  0  0  0  0  0  0  0  0
    0.1651    1.1100    4.6920 H   0  0  0  0  0  0  0  0  0  0  0  0
   -0.2327    4.2837    4.7189 H   0  0  0  0  0  0  0  0  0  0  0  0
   -0.8313    6.5964    3.5770 H   0  0  0  0  0  0  0  0  0  0  0  0
    0.3678    7.1379    0.5904 H   0  0  0  0  0  0  0  0  0  0  0  0
    0.8652    6.2601   -0.6939 H   0  0  0  0  0  0  0  0  0  0  0  0
    2.0365    8.2117    2.2702 H   0  0  0  0  0  0  0  0  0  0  0  0
    5.4630    9.9249    3.7427 H   0  0  0  0  0  0  0  0  0  0  0  0
  1  2  1  0  0  0  0
  1 46  1  0  0  0  0
  2  3  1  0  0  0  0
  2 47  1  0  0  0  0
  2 48  1  0  0  0  0
  3  4  1  0  0  0  0
  3  5  1  0  0  0  0
  3 43  1  0  0  0  0
  5  6  1  0  0  0  0
  6 40  1  0  0  0  0
  6  8  1  0  0  0  0
  6  7  1  0  0  0  0
  9 11  1  0  0  0  0
  9 10  1  0  0  0  0
  9  8  1  0  0  0  0
 11 12  1  0  0  0  0
 11 13  1  0  0  0  0
 11 14  1  0  0  0  0
 13 49  1  0  0  0  0
 14 15  1  0  0  0  0
 14 16  1  0  0  0  0
 14 17  1  0  0  0  0
 16 50  1  0  0  0  0
 16 51  1  0  0  0  0
 17 18  1  0  0  0  0
 17 52  1  0  0  0  0
 17 53  1  0  0  0  0
 18 19  1  0  0  0  0
 18 20  1  0  0  0  0
 18 21  1  0  0  0  0
 20 54  1  0  0  0  0
 20 55  1  0  0  0  0
 21  9  1  0  0  0  0
 21 23  1  0  0  0  0
 21 22  1  0  0  0  0
 23 24  1  0  0  0  0
 24 25  1  0  0  0  0
 24 26  1  0  0  0  0
 24 37  1  0  0  0  0
 26 27  1  0  0  0  0
 27 28  1  0  0  0  0
 27 29  1  0  0  0  0
 27 31  1  0  0  0  0
 29 30  1  0  0  0  0
 29 56  1  0  0  0  0
 29 57  1  0  0  0  0
 30 58  1  0  0  0  0
 30 59  1  0  0  0  0
 31 33  1  0  0  0  0
 31 32  1  0  0  0  0
 33 60  1  0  0  0  0
 34 31  1  0  0  0  0
 34 35  1  0  0  0  0
 34 36  1  0  0  0  0
 36 61  1  0  0  0  0
 37 34  1  0  0  0  0
 37 39  1  0  0  0  0
 37 38  1  0  0  0  0
 39 62  1  0  0  0  0
 39 63  1  0  0  0  0
 40 41  1  0  0  0  0
 40 42  1  0  0  0  0
 40 43  1  0  0  0  0
 42 64  1  0  0  0  0
 43 44  1  0  0  0  0
 43 45  1  0  0  0  0
 45 65  1  0  0  0  0
M  END
>  <energy>
117.87080251206157

$$$$
