REMARK  16 active torsions:
REMARK  status: ('A' for Active; 'I' for Inactive)
REMARK    1  A    between atoms: O_1  and  C_2 
REMARK    2  A    between atoms: C_2  and  C_3 
REMARK    3  A    between atoms: C_5  and  O_6 
REMARK    4  A    between atoms: C_7  and  O_6 
REMARK    5  A    between atoms: C_8  and  O_9 
REMARK    6  A    between atoms: C_10  and  N_11 
REMARK    7  A    between atoms: C_13  and  N_14 
REMARK    8  A    between atoms: C_15  and  O_16 
REMARK    9  A    between atoms: O_16  and  C_17 
REMARK   10  A    between atoms: C_19  and  C_20 
REMARK   11  A    between atoms: C_20  and  N_21 
REMARK   12  A    between atoms: C_22  and  O_23 
REMARK   13  A    between atoms: C_24  and  O_25 
REMARK   14  A    between atoms: C_26  and  N_27 
REMARK   15  A    between atoms: C_28  and  O_29 
REMARK   16  A    between atoms: C_30  and  O_31 
ROOT
ATOM      1  C   UNL d   1       3.479   4.041   2.790  0.00  0.00     0.186 C 
ATOM      2  C   UNL d   1       4.567   2.982   3.004  0.00  0.00     0.182 C 
ATOM      3  C   UNL d   1       5.941   3.339   2.426  0.00  0.00     0.251 C 
ATOM      4  C   UNL d   1       5.853   4.245   1.194  0.00  0.00     0.076 C 
ATOM      5  C   UNL d   1       4.513   4.185   0.453  0.00  0.00     0.251 C 
ATOM      6  C   UNL d   1       3.236   4.387   1.315  0.00  0.00     0.189 C 
ENDROOT
BRANCH   6   7
ATOM      7  O   UNL d   1       2.267   3.431   0.848  0.00  0.00    -0.349 OA
BRANCH   7   8
ATOM      8  C   UNL d   1       0.899   3.749   0.562  0.00  0.00     0.296 C 
ATOM      9  O   UNL d   1       0.031   2.696   1.090  0.00  0.00    -0.349 OA
ATOM     10  C   UNL d   1      -0.151   2.740   2.525  0.00  0.00     0.183 C 
ATOM     11  C   UNL d   1      -0.891   4.037   2.874  0.00  0.00     0.179 C 
ATOM     12  C   UNL d   1      -0.078   5.246   2.389  0.00  0.00     0.187 C 
ATOM     13  C   UNL d   1       0.220   5.114   0.878  0.00  0.00     0.303 C 
BRANCH  10  14
ATOM     14  C   UNL d   1      -0.889   1.460   2.964  0.00  0.00     0.301 C 
BRANCH  14  15
ATOM     15  N   UNL d   1      -0.808   1.251   4.410  0.00  0.00     0.080 N 
ATOM     16  H   UNL d   1      -1.308   0.400   4.665  0.00  0.00     0.312 HD
ATOM     17  H   UNL d   1       0.165   1.110   4.692  0.00  0.00     0.312 HD
ENDBRANCH  14  15
ENDBRANCH  10  14
BRANCH  11  18
ATOM     18  O   UNL d   1      -1.093   4.146   4.282  0.00  0.00    -0.390 OA
ATOM     19  H   UNL d   1      -0.233   4.284   4.719  0.00  0.00     0.210 HD
ENDBRANCH  11  18
BRANCH  12  20
ATOM     20  O   UNL d   1      -0.864   6.421   2.619  0.00  0.00    -0.391 OA
ATOM     21  H   UNL d   1      -0.831   6.596   3.577  0.00  0.00     0.210 HD
ENDBRANCH  12  20
BRANCH  13  22
ATOM     22  N   UNL d   1       0.888   6.299   0.330  0.00  0.00     0.090 N 
ATOM     23  H   UNL d   1       0.368   7.138   0.590  0.00  0.00     0.313 HD
ATOM     24  H   UNL d   1       0.865   6.260  -0.694  0.00  0.00     0.313 HD
ENDBRANCH  13  22
ENDBRANCH   7   8
ENDBRANCH   6   7
BRANCH   5  25
ATOM     25  N   UNL d   1       4.559   5.182  -0.626  0.00  0.00     0.085 N 
ATOM     26  H   UNL d   1       5.154   4.840  -1.379  0.00  0.00     0.313 HD
ATOM     27  H   UNL d   1       5.000   6.040  -0.274  0.00  0.00     0.313 HD
ENDBRANCH   5  25
BRANCH   1  28
ATOM     28  O   UNL d   1       3.489   5.121   3.706  0.00  0.00    -0.348 OA
BRANCH  28  29
ATOM     29  C   UNL d   1       4.260   6.286   3.461  0.00  0.00     0.292 C 
ATOM     30  O   UNL d   1       5.216   6.436   4.529  0.00  0.00    -0.348 OA
ATOM     31  C   UNL d   1       4.950   7.658   5.232  0.00  0.00     0.179 C 
ATOM     32  C   UNL d   1       4.202   8.519   4.238  0.00  0.00     0.182 C 
ATOM     33  C   UNL d   1       3.346   7.502   3.513  0.00  0.00     0.204 C 
BRANCH  31  34
ATOM     34  C   UNL d   1       4.160   7.430   6.517  0.00  0.00     0.198 C 
BRANCH  34  35
ATOM     35  O   UNL d   1       4.511   6.176   7.083  0.00  0.00    -0.398 OA
ATOM     36  H   UNL d   1       3.890   6.003   7.816  0.00  0.00     0.209 HD
ENDBRANCH  34  35
ENDBRANCH  31  34
BRANCH  32  37
ATOM     37  O   UNL d   1       5.161   9.090   3.349  0.00  0.00    -0.390 OA
ATOM     38  H   UNL d   1       5.463   9.925   3.743  0.00  0.00     0.210 HD
ENDBRANCH  32  37
BRANCH  33  39
ATOM     39  O   UNL d   1       2.977   7.959   2.225  0.00  0.00    -0.388 OA
ATOM     40  H   UNL d   1       2.037   8.212   2.270  0.00  0.00     0.210 HD
ENDBRANCH  33  39
ENDBRANCH  28  29
ENDBRANCH   1  28
BRANCH   2  41
ATOM     41  O   UNL d   1       4.137   1.782   2.336  0.00  0.00    -0.391 OA
ATOM     42  H   UNL d   1       4.383   1.030   2.900  0.00  0.00     0.210 HD
ENDBRANCH   2  41
BRANCH   3  43
ATOM     43  N   UNL d   1       6.721   3.989   3.490  0.00  0.00     0.085 N 
ATOM     44  H   UNL d   1       7.676   4.145   3.169  0.00  0.00     0.313 HD
ATOM     45  H   UNL d   1       6.805   3.345   4.281  0.00  0.00     0.313 HD
ENDBRANCH   3  43
TORSDOF 16
