REMARK  11 active torsions:
REMARK  status: ('A' for Active; 'I' for Inactive)
REMARK    1  A    between atoms: C_2  and  C_3 
REMARK    2  A    between atoms: C_3  and  C_4 
REMARK    3  A    between atoms: C_4  and  N_5 
REMARK    4  A    between atoms: N_5  and  C_6 
REMARK    5  A    between atoms: C_6  and  C_7 
REMARK    6  A    between atoms: C_7  and  C_8 
REMARK    7  A    between atoms: C_8  and  C_9 
REMARK    8  A    between atoms: C_9  and  N_10 
REMARK    9  A    between atoms: N_10  and  C_11 
REMARK   10  A    between atoms: C_11  and  C_12 
REMARK   11  A    between atoms: C_12  and  C_13 
ROOT
ATOM      1  C   UNL d   1      21.004   0.155  63.668  0.00  0.00     0.040 C 
ENDROOT
BRANCH   1   2
ATOM      2  C   UNL d   1      20.437   0.826  64.931  0.00  0.00     0.290 C 
BRANCH   2   3
ATOM      3  N   UNL d   1      20.805   2.270  65.051  0.00  0.00     0.339 N 
BRANCH   3   4
ATOM      4  C   UNL d   1      20.188   3.058  63.956  0.00  0.00     0.292 C 
BRANCH   4   5
ATOM      5  C   UNL d   1      21.234   4.019  63.483  0.00  0.00     0.079 C 
BRANCH   5   6
ATOM      6  C   UNL d   1      20.657   4.735  62.321  0.00  0.00     0.341 C 
ATOM      7  N   UNL d   1      21.575   4.728  61.197  0.00  0.00     0.618 N 
ENDBRANCH   5   6
ENDBRANCH   4   5
ENDBRANCH   3   4
ENDBRANCH   2   3
ENDBRANCH   1   2
BRANCH   1   8
ATOM      8  C   UNL d   1      20.584  -1.316  63.500  0.00  0.00     0.028 C 
BRANCH   8   9
ATOM      9  C   UNL d   1      19.600  -1.425  62.345  0.00  0.00     0.120 C 
BRANCH   9  10
ATOM     10  N   UNL d   1      18.796  -2.618  62.648  0.00  0.00    -0.295 NA
BRANCH  10  11
ATOM     11  C   UNL d   1      19.019  -3.839  61.824  0.00  0.00     0.122 C 
BRANCH  11  12
ATOM     12  C   UNL d   1      18.002  -4.800  62.477  0.00  0.00     0.067 C 
BRANCH  12  13
ATOM     13  C   UNL d   1      17.780  -4.719  63.966  0.00  0.00     0.340 C 
ATOM     14  N   UNL d   1      17.071  -5.850  64.539  0.00  0.00     0.618 N 
ENDBRANCH  12  13
ENDBRANCH  11  12
ENDBRANCH  10  11
ENDBRANCH   9  10
ENDBRANCH   8   9
ENDBRANCH   1   8
TORSDOF 11
