@<TRIPOS>MOLECULE
1XPF_SPM_A_108
 14 13 0 0 0
SMALL
GASTEIGER
****
Coordinates from PDB:1XPF:A:108 Model:1 without hydrogens
@<TRIPOS>ATOM
      1 N          21.5750    4.7280   61.1970 N.3     1  UNL1       -0.1313
      2 C          20.6570    4.7350   62.3210 C.3     1  UNL1        0.1108
      3 C          21.2340    4.0190   63.4830 C.3     1  UNL1        0.0393
      4 C          20.1880    3.0580   63.9560 C.3     1  UNL1        0.0902
      5 N          20.8050    2.2700   65.0510 N.3     1  UNL1       -0.2180
      6 C          20.4370    0.8260   64.9310 C.3     1  UNL1        0.0887
      7 C          21.0040    0.1550   63.6680 C.3     1  UNL1        0.0203
      8 C          20.5840   -1.3160   63.5000 C.3     1  UNL1        0.0203
      9 C          19.6000   -1.4250   62.3450 C.3     1  UNL1        0.0887
     10 N          18.7960   -2.6180   62.6480 N.3     1  UNL1       -0.2180
     11 C          19.0190   -3.8390   61.8240 C.3     1  UNL1        0.0902
     12 C          18.0020   -4.8000   62.4770 C.3     1  UNL1        0.0393
     13 C          17.7800   -4.7190   63.9660 C.3     1  UNL1        0.1108
     14 N          17.0710   -5.8500   64.5390 N.3     1  UNL1       -0.1313
@<TRIPOS>BOND
     1     1     2    1
     2     2     3    1
     3     3     4    1
     4     4     5    1
     5     5     6    1
     6     6     7    1
     7     7     8    1
     8     8     9    1
     9     9    10    1
    10    10    11    1
    11    11    12    1
    12    12    13    1
    13    13    14    1
