1XPF_SPM_A_108
 OpenBabel10091713573D
Coordinates from PDB:1XPF:A:108 Model:1 without hydrogens
 40 39  0  0  0  0  0  0  0  0999 V2000
   21.5750    4.7280   61.1970 N   0  0  0  0  0  0  0  0  0  0  0  0
   20.6570    4.7350   62.3210 C   0  0  0  0  0  0  0  0  0  0  0  0
   21.2340    4.0190   63.4830 C   0  0  0  0  0  0  0  0  0  0  0  0
   20.1880    3.0580   63.9560 C   0  0  0  0  0  0  0  0  0  0  0  0
   20.8050    2.2700   65.0510 N   0  0  0  0  0  0  0  0  0  0  0  0
   20.4370    0.8260   64.9310 C   0  0  0  0  0  0  0  0  0  0  0  0
   21.0040    0.1550   63.6680 C   0  0  0  0  0  0  0  0  0  0  0  0
   20.5840   -1.3160   63.5000 C   0  0  0  0  0  0  0  0  0  0  0  0
   19.6000   -1.4250   62.3450 C   0  0  0  0  0  0  0  0  0  0  0  0
   18.7960   -2.6180   62.6480 N   0  0  0  0  0  0  0  0  0  0  0  0
   19.0190   -3.8390   61.8240 C   0  0  0  0  0  0  0  0  0  0  0  0
   18.0020   -4.8000   62.4770 C   0  0  0  0  0  0  0  0  0  0  0  0
   17.7800   -4.7190   63.9660 C   0  0  0  0  0  0  0  0  0  0  0  0
   17.0710   -5.8500   64.5390 N   0  0  0  0  0  0  0  0  0  0  0  0
   21.1552    5.2259   60.4120 H   0  0  0  0  0  0  0  0  0  0  0  0
   21.7703    3.7650   60.9235 H   0  0  0  0  0  0  0  0  0  0  0  0
   19.7458    4.2547   62.0314 H   0  0  0  0  0  0  0  0  0  0  0  0
   20.4724    5.7503   62.6038 H   0  0  0  0  0  0  0  0  0  0  0  0
   21.4767    4.7127   64.2607 H   0  0  0  0  0  0  0  0  0  0  0  0
   22.1340    3.5073   63.2128 H   0  0  0  0  0  0  0  0  0  0  0  0
   19.8915    2.4113   63.1568 H   0  0  0  0  0  0  0  0  0  0  0  0
   19.3137    3.5734   64.2950 H   0  0  0  0  0  0  0  0  0  0  0  0
   20.4752    2.6267   65.9479 H   0  0  0  0  0  0  0  0  0  0  0  0
   19.3701    0.7486   64.9065 H   0  0  0  0  0  0  0  0  0  0  0  0
   20.8594    0.3208   65.7744 H   0  0  0  0  0  0  0  0  0  0  0  0
   22.0721    0.1969   63.7151 H   0  0  0  0  0  0  0  0  0  0  0  0
   20.6080    0.6883   62.8291 H   0  0  0  0  0  0  0  0  0  0  0  0
   20.1194   -1.6608   64.4001 H   0  0  0  0  0  0  0  0  0  0  0  0
   21.4464   -1.9156   63.2961 H   0  0  0  0  0  0  0  0  0  0  0  0
   20.1195   -1.5461   61.4174 H   0  0  0  0  0  0  0  0  0  0  0  0
   18.9972   -0.5468   62.2436 H   0  0  0  0  0  0  0  0  0  0  0  0
   17.8153   -2.3572   62.5447 H   0  0  0  0  0  0  0  0  0  0  0  0
   20.0216   -4.2012   61.9158 H   0  0  0  0  0  0  0  0  0  0  0  0
   18.8913   -3.6989   60.7709 H   0  0  0  0  0  0  0  0  0  0  0  0
   18.3271   -5.7963   62.2611 H   0  0  0  0  0  0  0  0  0  0  0  0
   17.0621   -4.5060   62.0585 H   0  0  0  0  0  0  0  0  0  0  0  0
   17.2149   -3.8337   64.1705 H   0  0  0  0  0  0  0  0  0  0  0  0
   18.7511   -4.7135   64.4153 H   0  0  0  0  0  0  0  0  0  0  0  0
   16.1332   -5.9004   64.1411 H   0  0  0  0  0  0  0  0  0  0  0  0
   17.0055   -5.7333   65.5502 H   0  0  0  0  0  0  0  0  0  0  0  0
  1  2  1  0  0  0  0
  1 15  1  0  0  0  0
  1 16  1  0  0  0  0
  2  3  1  0  0  0  0
  2 17  1  0  0  0  0
  2 18  1  0  0  0  0
  3  4  1  0  0  0  0
  3 19  1  0  0  0  0
  3 20  1  0  0  0  0
  4  5  1  0  0  0  0
  4 21  1  0  0  0  0
  4 22  1  0  0  0  0
  5  6  1  0  0  0  0
  5 23  1  0  0  0  0
  6  7  1  0  0  0  0
  6 24  1  0  0  0  0
  6 25  1  0  0  0  0
  7  8  1  0  0  0  0
  7 26  1  0  0  0  0
  7 27  1  0  0  0  0
  8  9  1  0  0  0  0
  8 28  1  0  0  0  0
  8 29  1  0  0  0  0
  9 10  1  0  0  0  0
  9 30  1  0  0  0  0
  9 31  1  0  0  0  0
 10 11  1  0  0  0  0
 10 32  1  0  0  0  0
 11 12  1  0  0  0  0
 11 33  1  0  0  0  0
 11 34  1  0  0  0  0
 12 13  1  0  0  0  0
 12 35  1  0  0  0  0
 12 36  1  0  0  0  0
 13 14  1  0  0  0  0
 13 37  1  0  0  0  0
 13 38  1  0  0  0  0
 14 39  1  0  0  0  0
 14 40  1  0  0  0  0
M  END
$$$$
