REMARK  16 active torsions:
REMARK  status: ('A' for Active; 'I' for Inactive)
REMARK    1  A    between atoms: O_27  and  C_1 
REMARK    2  A    between atoms: N_26  and  C_2 
REMARK    3  A    between atoms: O_24  and  C_6 
REMARK    4  A    between atoms: N_22  and  C_7 
REMARK    5  A    between atoms: O_10  and  C_8 
REMARK    6  A    between atoms: C_11  and  O_10 
REMARK    7  A    between atoms: O_21  and  C_12 
REMARK    8  A    between atoms: O_20  and  C_13 
REMARK    9  A    between atoms: N_19  and  C_14 
REMARK   10  A    between atoms: C_16  and  C_15 
REMARK   11  A    between atoms: O_17  and  C_16 
REMARK   12  A    between atoms: C_28  and  O_27 
REMARK   13  A    between atoms: O_37  and  C_29 
REMARK   14  A    between atoms: O_36  and  C_30 
REMARK   15  A    between atoms: N_35  and  C_31 
REMARK   16  A    between atoms: N_34  and  C_33 
ROOT
ATOM      1  C   UNL d   1       5.184  -1.293  -1.176  0.00  0.00     0.293 C 
ATOM      2  C   UNL d   1       4.282  -1.451  -2.433  0.00  0.00     0.275 C 
ATOM      3  C   UNL d   1       4.057  -2.907  -2.761  0.00  0.00     0.075 C 
ATOM      4  C   UNL d   1       5.405  -3.528  -2.940  0.00  0.00     0.158 C 
ATOM      5  C   UNL d   1       6.142  -3.554  -1.601  0.00  0.00     0.184 C 
ATOM      6  C   UNL d   1       7.438  -4.493  -1.789  0.00  0.00     0.187 C 
ATOM      7  C   UNL d   1       7.090  -5.831  -2.597  0.00  0.00     0.305 C 
ATOM      8  C   UNL d   1       6.412  -5.352  -3.908  0.00  0.00     0.299 C 
ATOM      9  O   UNL d   1       5.189  -4.871  -3.328  0.00  0.00    -0.351 OA
ATOM     10  O   UNL d   1       6.360  -2.185  -1.163  0.00  0.00    -0.349 OA
ENDROOT
BRANCH   1  11
ATOM     11  O   UNL d   1       4.385  -1.405   0.010  0.00  0.00    -0.349 OA
BRANCH  11  12
ATOM     12  C   UNL d   1       4.380  -0.399   1.044  0.00  0.00     0.189 C 
ATOM     13  C   UNL d   1       4.593   1.149   0.694  0.00  0.00     0.180 C 
ATOM     14  C   UNL d   1       4.033   2.176   1.778  0.00  0.00     0.182 C 
ATOM     15  C   UNL d   1       2.614   1.970   2.475  0.00  0.00     0.251 C 
ATOM     16  C   UNL d   1       2.133   0.462   2.683  0.00  0.00     0.076 C 
ATOM     17  C   UNL d   1       2.988  -0.435   1.755  0.00  0.00     0.251 C 
BRANCH  13  18
ATOM     18  O   UNL d   1       5.995   1.454   0.562  0.00  0.00    -0.390 OA
ATOM     19  H   UNL d   1       6.456   0.676   0.207  0.00  0.00     0.210 HD
ENDBRANCH  13  18
BRANCH  14  20
ATOM     20  O   UNL d   1       3.985   3.444   1.100  0.00  0.00    -0.391 OA
ATOM     21  H   UNL d   1       4.062   4.132   1.783  0.00  0.00     0.210 HD
ENDBRANCH  14  20
BRANCH  15  22
ATOM     22  N   UNL d   1       2.618   2.666   3.778  0.00  0.00     0.085 N 
ATOM     23  H   UNL d   1       1.750   3.196   3.877  0.00  0.00     0.313 HD
ATOM     24  H   UNL d   1       2.630   2.003   4.547  0.00  0.00     0.313 HD
ENDBRANCH  15  22
BRANCH  17  25
ATOM     25  N   UNL d   1       2.106  -0.135   0.586  0.00  0.00     0.085 N 
ATOM     26  H   UNL d   1       2.511  -0.602  -0.227  0.00  0.00     0.313 HD
ATOM     27  H   UNL d   1       2.092   0.848   0.354  0.00  0.00     0.313 HD
ENDBRANCH  17  25
ENDBRANCH  11  12
ENDBRANCH   1  11
BRANCH   2  28
ATOM     28  N   UNL d   1       2.950  -0.842  -2.332  0.00  0.00     0.087 N 
ATOM     29  H   UNL d   1       2.544  -0.819  -3.272  0.00  0.00     0.313 HD
ATOM     30  H   UNL d   1       2.334  -1.472  -1.821  0.00  0.00     0.313 HD
ENDBRANCH   2  28
BRANCH   6  31
ATOM     31  O   UNL d   1       8.395  -3.781  -2.572  0.00  0.00    -0.391 OA
ATOM     32  H   UNL d   1       9.016  -3.395  -1.932  0.00  0.00     0.210 HD
ENDBRANCH   6  31
BRANCH   7  33
ATOM     33  N   UNL d   1       8.064  -6.904  -2.750  0.00  0.00     0.091 N 
ATOM     34  C   UNL d   1       9.258  -6.532  -3.463  0.00  0.00     0.307 C 
ATOM     35  H   UNL d   1       8.300  -7.324  -1.851  0.00  0.00     0.316 HD
ENDBRANCH   7  33
BRANCH   8  36
ATOM     36  O   UNL d   1       6.127  -6.210  -5.012  0.00  0.00    -0.327 OA
BRANCH  36  37
ATOM     37  C   UNL d   1       5.106  -5.544  -5.836  0.00  0.00     0.294 C 
ATOM     38  C   UNL d   1       3.930  -6.518  -5.912  0.00  0.00     0.204 C 
ATOM     39  C   UNL d   1       2.793  -5.993  -6.796  0.00  0.00     0.187 C 
ATOM     40  C   UNL d   1       2.995  -4.534  -7.218  0.00  0.00     0.279 C 
ATOM     41  C   UNL d   1       4.438  -4.179  -7.679  0.00  0.00     0.183 C 
ATOM     42  O   UNL d   1       5.465  -5.092  -7.155  0.00  0.00    -0.349 OA
BRANCH  38  43
ATOM     43  O   UNL d   1       4.373  -7.762  -6.436  0.00  0.00    -0.388 OA
ATOM     44  H   UNL d   1       3.687  -8.408  -6.195  0.00  0.00     0.210 HD
ENDBRANCH  38  43
BRANCH  39  45
ATOM     45  O   UNL d   1       1.621  -6.031  -5.943  0.00  0.00    -0.391 OA
ATOM     46  H   UNL d   1       0.824  -6.012  -6.506  0.00  0.00     0.210 HD
ENDBRANCH  39  45
BRANCH  40  47
ATOM     47  N   UNL d   1       2.066  -4.162  -8.303  0.00  0.00     0.088 N 
ATOM     48  H   UNL d   1       1.174  -4.627  -8.122  0.00  0.00     0.313 HD
ATOM     49  H   UNL d   1       1.901  -3.158  -8.186  0.00  0.00     0.313 HD
ENDBRANCH  40  47
BRANCH  41  50
ATOM     50  C   UNL d   1       4.710  -2.705  -7.255  0.00  0.00     0.198 C 
BRANCH  50  51
ATOM     51  O   UNL d   1       5.653  -2.104  -8.118  0.00  0.00    -0.398 OA
ATOM     52  H   UNL d   1       5.122  -1.742  -8.850  0.00  0.00     0.209 HD
ENDBRANCH  50  51
ENDBRANCH  41  50
ENDBRANCH  36  37
ENDBRANCH   8  36
TORSDOF 16
