2M4Q_AM2_1_101
  1228              3D

 78 81  0  0  0  0  0  0  0  0999 V2000
    5.1837   -1.2926   -1.1756 C   0  0  0  0  0  0  0  0  0  0  0  0
    5.5756   -0.2840   -1.2501 H   0  0  0  0  0  0  0  0  0  0  0  0
    4.2818   -1.4512   -2.4334 C   0  0  0  0  0  0  0  0  0  0  0  0
    4.8078   -0.9962   -3.2743 H   0  0  0  0  0  0  0  0  0  0  0  0
    4.0571   -2.9070   -2.7612 C   0  0  0  0  0  0  0  0  0  0  0  0
    5.4052   -3.5278   -2.9396 C   0  0  0  0  0  0  0  0  0  0  0  0
    5.9851   -2.9703   -3.6946 H   0  0  0  0  0  0  0  0  0  0  0  0
    6.1424   -3.5539   -1.6009 C   0  0  0  0  0  0  0  0  0  0  0  0
    5.5050   -4.0276   -0.8443 H   0  0  0  0  0  0  0  0  0  0  0  0
    7.4381   -4.4932   -1.7887 C   0  0  0  0  0  0  0  0  0  0  0  0
    7.9097   -4.7537   -0.8258 H   0  0  0  0  0  0  0  0  0  0  0  0
    7.0897   -5.8314   -2.5972 C   0  0  0  0  0  0  0  0  0  0  0  0
    6.3248   -6.3115   -1.9752 H   0  0  0  0  0  0  0  0  0  0  0  0
    6.4123   -5.3524   -3.9078 C   0  0  0  0  0  0  0  0  0  0  0  0
    7.0121   -4.5475   -4.3673 H   0  0  0  0  0  0  0  0  0  0  0  0
    5.1887   -4.8707   -3.3279 O   0  0  0  0  0  0  0  0  0  0  0  0
    6.1274   -6.2105   -5.0118 O   0  0  0  0  0  0  0  0  0  0  0  0
    5.1056   -5.5440   -5.8359 C   0  0  0  0  0  0  0  0  0  0  0  0
    4.7640   -4.6292   -5.3286 H   0  0  0  0  0  0  0  0  0  0  0  0
    3.9304   -6.5180   -5.9118 C   0  0  0  0  0  0  0  0  0  0  0  0
    3.5821   -6.7074   -4.8906 H   0  0  0  0  0  0  0  0  0  0  0  0
    2.7934   -5.9932   -6.7963 C   0  0  0  0  0  0  0  0  0  0  0  0
    2.6048   -6.6374   -7.6621 H   0  0  0  0  0  0  0  0  0  0  0  0
    2.9955   -4.5341   -7.2183 C   0  0  0  0  0  0  0  0  0  0  0  0
    2.7273   -3.9305   -6.3246 H   0  0  0  0  0  0  0  0  0  0  0  0
    4.4378   -4.1787   -7.6793 C   0  0  0  0  0  0  0  0  0  0  0  0
    4.5318   -4.2294   -8.7752 H   0  0  0  0  0  0  0  0  0  0  0  0
    4.7096   -2.7048   -7.2551 C   0  0  0  0  0  0  0  0  0  0  0  0
    5.6534   -2.1042   -8.1180 O   0  0  0  0  0  0  0  0  0  0  0  0
    5.4649   -5.0920   -7.1550 O   0  0  0  0  0  0  0  0  0  0  0  0
    2.0659   -4.1616   -8.3026 N   0  0  0  0  0  0  0  0  0  0  0  0
    1.6207   -6.0308   -5.9434 O   0  0  0  0  0  0  0  0  0  0  0  0
    4.3731   -7.7619   -6.4363 O   0  0  0  0  0  0  0  0  0  0  0  0
    8.0636   -6.9044   -2.7496 N   0  0  0  0  0  0  0  0  0  0  0  0
    9.2583   -6.5319   -3.4630 C   0  0  0  0  0  0  0  0  0  0  0  0
    8.3950   -3.7807   -2.5725 O   0  0  0  0  0  0  0  0  0  0  0  0
    6.3604   -2.1852   -1.1625 O   0  0  0  0  0  0  0  0  0  0  0  0
    2.9505   -0.8416   -2.3317 N   0  0  0  0  0  0  0  0  0  0  0  0
    4.3852   -1.4053    0.0104 O   0  0  0  0  0  0  0  0  0  0  0  0
    4.3805   -0.3990    1.0436 C   0  0  0  0  0  0  0  0  0  0  0  0
    5.1868   -0.7268    1.7121 H   0  0  0  0  0  0  0  0  0  0  0  0
    4.5931    1.1495    0.6935 C   0  0  0  0  0  0  0  0  0  0  0  0
    4.1306    1.3596   -0.2849 H   0  0  0  0  0  0  0  0  0  0  0  0
    4.0326    2.1762    1.7783 C   0  0  0  0  0  0  0  0  0  0  0  0
    4.7909    2.2858    2.5687 H   0  0  0  0  0  0  0  0  0  0  0  0
    2.6136    1.9699    2.4751 C   0  0  0  0  0  0  0  0  0  0  0  0
    1.8559    2.4900    1.8739 H   0  0  0  0  0  0  0  0  0  0  0  0
    2.1333    0.4619    2.6830 C   0  0  0  0  0  0  0  0  0  0  0  0
    2.9882   -0.4350    1.7550 C   0  0  0  0  0  0  0  0  0  0  0  0
    3.6799    0.1344    2.4255 H   0  0  0  0  0  0  0  0  0  0  0  0
    2.1057   -0.1351    0.5855 N   0  0  0  0  0  0  0  0  0  0  0  0
    2.6179    2.6664    3.7782 N   0  0  0  0  0  0  0  0  0  0  0  0
    3.9848    3.4442    1.1001 O   0  0  0  0  0  0  0  0  0  0  0  0
    5.9947    1.4538    0.5623 O   0  0  0  0  0  0  0  0  0  0  0  0
    3.5112   -3.4411   -1.9702 H   0  0  0  0  0  0  0  0  0  0  0  0
    3.4852   -3.0354   -3.6849 H   0  0  0  0  0  0  0  0  0  0  0  0
    5.0556   -2.6489   -6.2100 H   0  0  0  0  0  0  0  0  0  0  0  0
    3.7905   -2.0900   -7.2966 H   0  0  0  0  0  0  0  0  0  0  0  0
    5.1223   -1.7419   -8.8497 H   0  0  0  0  0  0  0  0  0  0  0  0
    1.1739   -4.6273   -8.1224 H   0  0  0  0  0  0  0  0  0  0  0  0
    1.9014   -3.1583   -8.1859 H   0  0  0  0  0  0  0  0  0  0  0  0
    0.8235   -6.0119   -6.5061 H   0  0  0  0  0  0  0  0  0  0  0  0
    3.6869   -8.4077   -6.1946 H   0  0  0  0  0  0  0  0  0  0  0  0
    8.2995   -7.3239   -1.8512 H   0  0  0  0  0  0  0  0  0  0  0  0
    9.9589   -5.9974   -2.8056 H   0  0  0  0  0  0  0  0  0  0  0  0
    9.7045   -7.4581   -3.8109 H   0  0  0  0  0  0  0  0  0  0  0  0
    9.0239   -5.9450   -4.3593 H   0  0  0  0  0  0  0  0  0  0  0  0
    9.0156   -3.3947   -1.9318 H   0  0  0  0  0  0  0  0  0  0  0  0
    2.5444   -0.8190   -3.2725 H   0  0  0  0  0  0  0  0  0  0  0  0
    2.3345   -1.4719   -1.8208 H   0  0  0  0  0  0  0  0  0  0  0  0
    2.2405    0.1344    3.7343 H   0  0  0  0  0  0  0  0  0  0  0  0
    1.0524    0.4404    2.5070 H   0  0  0  0  0  0  0  0  0  0  0  0
    2.5110   -0.6016   -0.2274 H   0  0  0  0  0  0  0  0  0  0  0  0
    2.0922    0.8479    0.3541 H   0  0  0  0  0  0  0  0  0  0  0  0
    1.7503    3.1960    3.8773 H   0  0  0  0  0  0  0  0  0  0  0  0
    2.6300    2.0028    4.5468 H   0  0  0  0  0  0  0  0  0  0  0  0
    4.0618    4.1323    1.7833 H   0  0  0  0  0  0  0  0  0  0  0  0
    6.4557    0.6763    0.2073 H   0  0  0  0  0  0  0  0  0  0  0  0
  1  2  1  0  0  0  0
  3  1  1  0  0  0  0
  3  4  1  0  0  0  0
  5  3  1  0  0  0  0
  6  5  1  0  0  0  0
  6  7  1  0  0  0  0
  8  6  1  0  0  0  0
  8  9  1  0  0  0  0
 10  8  1  0  0  0  0
 10 11  1  0  0  0  0
 12 10  1  0  0  0  0
 12 13  1  0  0  0  0
 14 12  1  0  0  0  0
 14 15  1  0  0  0  0
 16 14  1  0  0  0  0
 16  6  1  0  0  0  0
 17 14  1  0  0  0  0
 18 17  1  0  0  0  0
 18 19  1  0  0  0  0
 20 18  1  0  0  0  0
 20 21  1  0  0  0  0
 22 20  1  0  0  0  0
 22 23  1  0  0  0  0
 24 22  1  0  0  0  0
 24 25  1  0  0  0  0
 26 24  1  0  0  0  0
 26 27  1  0  0  0  0
 28 26  1  0  0  0  0
 29 28  1  0  0  0  0
 30 26  1  0  0  0  0
 30 18  1  0  0  0  0
 31 24  1  0  0  0  0
 32 22  1  0  0  0  0
 33 20  1  0  0  0  0
 34 12  1  0  0  0  0
 35 34  1  0  0  0  0
 36 10  1  0  0  0  0
 37  8  1  0  0  0  0
 37  1  1  0  0  0  0
 38  3  1  0  0  0  0
 39  1  1  0  0  0  0
 40 39  1  0  0  0  0
 40 41  1  0  0  0  0
 42 40  1  0  0  0  0
 42 43  1  0  0  0  0
 44 42  1  0  0  0  0
 44 45  1  0  0  0  0
 46 44  1  0  0  0  0
 46 47  1  0  0  0  0
 48 46  1  0  0  0  0
 49 48  1  0  0  0  0
 49 50  1  0  0  0  0
 49 40  1  0  0  0  0
 51 49  1  0  0  0  0
 52 46  1  0  0  0  0
 53 44  1  0  0  0  0
 54 42  1  0  0  0  0
  5 55  1  0  0  0  0
  5 56  1  0  0  0  0
 28 57  1  0  0  0  0
 28 58  1  0  0  0  0
 29 59  1  0  0  0  0
 31 60  1  0  0  0  0
 31 61  1  0  0  0  0
 32 62  1  0  0  0  0
 33 63  1  0  0  0  0
 34 64  1  0  0  0  0
 35 65  1  0  0  0  0
 35 66  1  0  0  0  0
 35 67  1  0  0  0  0
 36 68  1  0  0  0  0
 38 69  1  0  0  0  0
 38 70  1  0  0  0  0
 48 71  1  0  0  0  0
 48 72  1  0  0  0  0
 51 73  1  0  0  0  0
 51 74  1  0  0  0  0
 52 75  1  0  0  0  0
 52 76  1  0  0  0  0
 53 77  1  0  0  0  0
 54 78  1  0  0  0  0
M  END
>  <energy>
277.73052202190513

$$$$
