@<TRIPOS>MOLECULE
2M4Q_AM2_1_101
 78 81 0 0 0
SMALL
GASTEIGER

@<TRIPOS>ATOM
      1 C           5.1837   -1.2926   -1.1756 C.3     1  UNL1        0.1752
      2 H           5.5756   -0.2840   -1.2501 H       1  UNL1        0.0926
      3 C           4.2818   -1.4512   -2.4334 C.3     1  UNL1        0.0590
      4 H           4.8078   -0.9962   -3.2743 H       1  UNL1        0.0509
      5 C           4.0571   -2.9070   -2.7612 C.3     1  UNL1       -0.0040
      6 C           5.4052   -3.5278   -2.9396 C.3     1  UNL1        0.0920
      7 H           5.9851   -2.9703   -3.6946 H       1  UNL1        0.0624
      8 C           6.1424   -3.5539   -1.6009 C.3     1  UNL1        0.1153
      9 H           5.5050   -4.0276   -0.8443 H       1  UNL1        0.0649
     10 C           7.4381   -4.4932   -1.7887 C.3     1  UNL1        0.1038
     11 H           7.9097   -4.7537   -0.8258 H       1  UNL1        0.0637
     12 C           7.0897   -5.8314   -2.5972 C.3     1  UNL1        0.0877
     13 H           6.3248   -6.3115   -1.9752 H       1  UNL1        0.0537
     14 C           6.4123   -5.3524   -3.9078 C.3     1  UNL1        0.1803
     15 H           7.0121   -4.5475   -4.3673 H       1  UNL1        0.0928
     16 O           5.1887   -4.8707   -3.3279 O.3     1  UNL1       -0.3436
     17 O           6.1274   -6.2105   -5.0118 O.3     1  UNL1       -0.3184
     18 C           5.1056   -5.5440   -5.8359 C.3     1  UNL1        0.1908
     19 H           4.7640   -4.6292   -5.3286 H       1  UNL1        0.0938
     20 C           3.9304   -6.5180   -5.9118 C.3     1  UNL1        0.1332
     21 H           3.5821   -6.7074   -4.8906 H       1  UNL1        0.0671
     22 C           2.7934   -5.9932   -6.7963 C.3     1  UNL1        0.1033
     23 H           2.6048   -6.6374   -7.6621 H       1  UNL1        0.0637
     24 C           2.9955   -4.5341   -7.2183 C.3     1  UNL1        0.0626
     25 H           2.7273   -3.9305   -6.3246 H       1  UNL1        0.0511
     26 C           4.4378   -4.1787   -7.6793 C.3     1  UNL1        0.1023
     27 H           4.5318   -4.2294   -8.7752 H       1  UNL1        0.0636
     28 C           4.7096   -2.7048   -7.2551 C.3     1  UNL1        0.0720
     29 O           5.6534   -2.1042   -8.1180 O.3     1  UNL1       -0.3924
     30 O           5.4649   -5.0920   -7.1550 O.3     1  UNL1       -0.3415
     31 N           2.0659   -4.1616   -8.3026 N.3     1  UNL1       -0.3230
     32 O           1.6207   -6.0308   -5.9434 O.3     1  UNL1       -0.3874
     33 O           4.3731   -7.7619   -6.4363 O.3     1  UNL1       -0.3841
     34 N           8.0636   -6.9044   -2.7496 N.3     1  UNL1       -0.3099
     35 C           9.2583   -6.5319   -3.4630 C.3     1  UNL1       -0.0153
     36 O           8.3950   -3.7807   -2.5725 O.3     1  UNL1       -0.3874
     37 O           6.3604   -2.1852   -1.1625 O.3     1  UNL1       -0.3413
     38 N           2.9505   -0.8416   -2.3317 N.3     1  UNL1       -0.3231
     39 O           4.3852   -1.4053    0.0104 O.3     1  UNL1       -0.3423
     40 C           4.3805   -0.3990    1.0436 C.3     1  UNL1        0.1051
     41 H           5.1868   -0.7268    1.7121 H       1  UNL1        0.0639
     42 C           4.5931    1.1495    0.6935 C.3     1  UNL1        0.1101
     43 H           4.1306    1.3596   -0.2849 H       1  UNL1        0.0646
     44 C           4.0326    2.1762    1.7783 C.3     1  UNL1        0.0986
     45 H           4.7909    2.2858    2.5687 H       1  UNL1        0.0635
     46 C           2.6136    1.9699    2.4751 C.3     1  UNL1        0.0351
     47 H           1.8559    2.4900    1.8739 H       1  UNL1        0.0485
     48 C           2.1333    0.4619    2.6830 C.3     1  UNL1       -0.0175
     49 C           2.9882   -0.4350    1.7550 C.3     1  UNL1        0.0355
     50 H           3.6799    0.1344    2.4255 H       1  UNL1        0.0485
     51 N           2.1057   -0.1351    0.5855 N.3     1  UNL1       -0.3250
     52 N           2.6179    2.6664    3.7782 N.3     1  UNL1       -0.3250
     53 O           3.9848    3.4442    1.1001 O.3     1  UNL1       -0.3876
     54 O           5.9947    1.4538    0.5623 O.3     1  UNL1       -0.3866
     55 H           3.5112   -3.4411   -1.9702 H       1  UNL1        0.0308
     56 H           3.4852   -3.0354   -3.6849 H       1  UNL1        0.0308
     57 H           5.0556   -2.6489   -6.2100 H       1  UNL1        0.0583
     58 H           3.7905   -2.0900   -7.2966 H       1  UNL1        0.0583
     59 H           5.1223   -1.7419   -8.8497 H       1  UNL1        0.2095
     60 H           1.1739   -4.6273   -8.1224 H       1  UNL1        0.1186
     61 H           1.9014   -3.1583   -8.1859 H       1  UNL1        0.1186
     62 H           0.8235   -6.0119   -6.5061 H       1  UNL1        0.2100
     63 H           3.6869   -8.4077   -6.1946 H       1  UNL1        0.2101
     64 H           8.2995   -7.3239   -1.8512 H       1  UNL1        0.1221
     65 H           9.9589   -5.9974   -2.8056 H       1  UNL1        0.0388
     66 H           9.7045   -7.4581   -3.8109 H       1  UNL1        0.0388
     67 H           9.0239   -5.9450   -4.3593 H       1  UNL1        0.0388
     68 H           9.0156   -3.3947   -1.9318 H       1  UNL1        0.2100
     69 H           2.5444   -0.8190   -3.2725 H       1  UNL1        0.1186
     70 H           2.3345   -1.4719   -1.8208 H       1  UNL1        0.1186
     71 H           2.2405    0.1344    3.7343 H       1  UNL1        0.0297
     72 H           1.0524    0.4404    2.5070 H       1  UNL1        0.0297
     73 H           2.5110   -0.6016   -0.2274 H       1  UNL1        0.1185
     74 H           2.0922    0.8479    0.3541 H       1  UNL1        0.1185
     75 H           1.7503    3.1960    3.8773 H       1  UNL1        0.1185
     76 H           2.6300    2.0028    4.5468 H       1  UNL1        0.1185
     77 H           4.0618    4.1323    1.7833 H       1  UNL1        0.2100
     78 H           6.4557    0.6763    0.2073 H       1  UNL1        0.2100
@<TRIPOS>BOND
     1     1     2    1
     2     3     1    1
     3     3     4    1
     4     5     3    1
     5     6     5    1
     6     6     7    1
     7     8     6    1
     8     8     9    1
     9    10     8    1
    10    10    11    1
    11    12    10    1
    12    12    13    1
    13    14    12    1
    14    14    15    1
    15    16    14    1
    16    16     6    1
    17    17    14    1
    18    18    17    1
    19    18    19    1
    20    20    18    1
    21    20    21    1
    22    22    20    1
    23    22    23    1
    24    24    22    1
    25    24    25    1
    26    26    24    1
    27    26    27    1
    28    28    26    1
    29    29    28    1
    30    30    26    1
    31    30    18    1
    32    31    24    1
    33    32    22    1
    34    33    20    1
    35    34    12    1
    36    35    34    1
    37    36    10    1
    38    37     8    1
    39    37     1    1
    40    38     3    1
    41    39     1    1
    42    40    39    1
    43    40    41    1
    44    42    40    1
    45    42    43    1
    46    44    42    1
    47    44    45    1
    48    46    44    1
    49    46    47    1
    50    48    46    1
    51    49    48    1
    52    49    50    1
    53    49    40    1
    54    51    49    1
    55    52    46    1
    56    53    44    1
    57    54    42    1
    58     5    55    1
    59     5    56    1
    60    28    57    1
    61    28    58    1
    62    29    59    1
    63    31    60    1
    64    31    61    1
    65    32    62    1
    66    33    63    1
    67    34    64    1
    68    35    65    1
    69    35    66    1
    70    35    67    1
    71    36    68    1
    72    38    69    1
    73    38    70    1
    74    48    71    1
    75    48    72    1
    76    51    73    1
    77    51    74    1
    78    52    75    1
    79    52    76    1
    80    53    77    1
    81    54    78    1
