REMARK  7 active torsions:
REMARK  status: ('A' for Active; 'I' for Inactive)
REMARK    1  A    between atoms: CA_2  and  N_1 
REMARK    2  A    between atoms: CA_2  and  C_3 
REMARK    3  A    between atoms: CA_2  and  CB_6 
REMARK    4  A    between atoms: C_3  and  OXT_5 
REMARK    5  A    between atoms: CB_6  and  CG_7 
REMARK    6  A    between atoms: CG_7  and  CD_8 
REMARK    7  A    between atoms: CD_8  and  NE_9 
REMARK       I    between atoms: NE_9  and  CZ_10 
REMARK       I    between atoms: CZ_10  and  NH1_11 
ROOT
ATOM      1  CG  ARG d   1       4.483   1.103  -1.058  0.00  0.00     0.023 C 
ENDROOT
BRANCH   1   2
ATOM      2  CB  ARG d   1       2.958   0.965  -1.046  0.00  0.00     0.048 C 
BRANCH   2   3
ATOM      3  CA  ARG d   1       2.435   0.014   0.045  0.00  0.00     0.314 C 
BRANCH   3   4
ATOM      4  C   ARG d   1       0.897  -0.053  -0.004  0.00  0.00     0.173 C 
ATOM      5  O   ARG d   1       0.199   0.553  -0.801  0.00  0.00    -0.648 OA
BRANCH   4   6
ATOM      6  OXT ARG d   1       0.372  -0.872   0.939  0.00  0.00    -0.775 OA
ATOM      7  HXT ARG d   1       1.033  -1.252   1.546  0.00  0.00     0.167 HD
ENDBRANCH   4   6
ENDBRANCH   3   4
BRANCH   3   8
ATOM      8  N   ARG d   1       3.022  -1.328  -0.133  0.00  0.00     0.093 N 
ATOM      9  H1  ARG d   1       2.672  -1.734  -1.006  0.00  0.00     0.314 HD
ATOM     10  H2  ARG d   1       2.736  -1.975   0.599  0.00  0.00     0.314 HD
ENDBRANCH   3   8
ENDBRANCH   2   3
ENDBRANCH   1   2
BRANCH   1  11
ATOM     11  CD  ARG d   1       4.944   2.077  -2.138  0.00  0.00     0.138 C 
BRANCH  11  12
ATOM     12  NE  ARG d   1       6.412   2.175  -2.155  0.00  0.00    -0.227 N 
ATOM     13  CZ  ARG d   1       7.113   2.949  -2.997  0.00  0.00     0.665 C 
ATOM     14  NH1 ARG d   1       6.517   3.714  -3.914  0.00  0.00    -0.235 N 
ATOM     15  NH2 ARG d   1       8.447   2.960  -2.921  0.00  0.00    -0.235 N 
ATOM     16 1HH1 ARG d   1       7.048   4.298  -4.547  0.00  0.00     0.174 HD
ATOM     17 2HH1 ARG d   1       5.511   3.734  -4.009  0.00  0.00     0.174 HD
ATOM     18 1HH2 ARG d   1       8.949   2.398  -2.245  0.00  0.00     0.174 HD
ATOM     19 2HH2 ARG d   1       9.005   3.534  -3.541  0.00  0.00     0.174 HD
ATOM     20  HE  ARG d   1       6.935   1.614  -1.493  0.00  0.00     0.177 HD
ENDBRANCH  11  12
ENDBRANCH   1  11
TORSDOF 7
