@<TRIPOS>MOLECULE
*****
 27 26 0 0 0
SMALL
GASTEIGER

@<TRIPOS>ATOM
      1 N           3.0219   -1.3282   -0.1330 N.3     1  ARG1       -0.3184
      2 CA          2.4349    0.0138    0.0446 C.3     1  ARG1        0.1033
      3 HA          2.7195    0.4099    1.0262 H       1  ARG1        0.0574
      4 C           0.8971   -0.0531   -0.0037 C.2     1  ARG1        0.3217
      5 O           0.1987    0.5532   -0.8015 O.2     1  ARG1       -0.2493
      6 OXT         0.3722   -0.8716    0.9393 O.3     1  ARG1       -0.4795
      7 CB          2.9582    0.9652   -1.0465 C.3     1  ARG1       -0.0245
      8 CG          4.4826    1.1025   -1.0576 C.3     1  ARG1       -0.0203
      9 CD          4.9440    2.0773   -2.1381 C.3     1  ARG1        0.0646
     10 NE          6.4121    2.1746   -2.1547 N.pl3   1  ARG1       -0.2787
     11 CZ          7.1126    2.9487   -2.9967 C.cat   1  ARG1        0.3410
     12 NH1         6.5174    3.7144   -3.9138 N.pl3   1  ARG1       -0.2919
     13 HH11        7.0476    4.2977   -4.5472 H       1  ARG1        0.2545
     14 HH12        5.5105    3.7338   -4.0086 H       1  ARG1        0.2545
     15 NH2         8.4470    2.9601   -2.9213 N.pl3   1  ARG1       -0.2919
     16 H1          2.6720   -1.7336   -1.0062 H       1  ARG1        0.1190
     17 H2          2.7362   -1.9748    0.5987 H       1  ARG1        0.1190
     18 HXT         1.0334   -1.2524    1.5457 H       1  ARG1        0.2951
     19 HB1         2.5129    1.9579   -0.8955 H       1  ARG1        0.0286
     20 HB2         2.6177    0.6254   -2.0340 H       1  ARG1        0.0286
     21 HG1         4.9551    0.1300   -1.2387 H       1  ARG1        0.0296
     22 HG2         4.8355    1.4476   -0.0782 H       1  ARG1        0.0296
     23 HD1         4.5362    3.0738   -1.9392 H       1  ARG1        0.0655
     24 HD2         4.6138    1.7260   -3.1216 H       1  ARG1        0.0655
     25 HE          6.9354    1.6140   -1.4933 H       1  ARG1        0.2578
     26 HH21        8.9486    2.3985   -2.2452 H       1  ARG1        0.2545
     27 HH22        9.0049    3.5342   -3.5407 H       1  ARG1        0.2545
@<TRIPOS>BOND
     1     1    16    1
     2     1    17    1
     3     2     4    1
     4     2     7    1
     5     2     3    1
     6     2     1    1
     7     4     5    2
     8     4     6    1
     9     6    18    1
    10     7     8    1
    11     7    19    1
    12     7    20    1
    13     8     9    1
    14     8    21    1
    15     8    22    1
    16     9    10    1
    17     9    23    1
    18     9    24    1
    19    10    11    1
    20    10    25    1
    21    11    12    2
    22    11    15    1
    23    12    13    1
    24    12    14    1
    25    15    26    1
    26    15    27    1
