@<TRIPOS>MOLECULE
2F4T_AB9_B_1
 78 79 0 0 0
SMALL
GASTEIGER

@<TRIPOS>ATOM
      1 C          -0.1609    3.1136    0.3427 C.3     1  UNL1        0.1776
      2 H           0.1909    4.1094    0.5723 H       1  UNL1        0.0927
      3 C          -1.7575    3.0763    0.5410 C.3     1  UNL1        0.0853
      4 H          -1.9682    3.1709    1.6225 H       1  UNL1        0.0535
      5 C          -2.6091    4.2359   -0.2308 C.3     1  UNL1        0.1033
      6 H          -3.5155    3.7936   -0.6705 H       1  UNL1        0.0637
      7 O          -3.0832    5.2034    0.7106 O.3     1  UNL1       -0.3874
      8 C          -1.8258    5.0261   -1.4012 C.3     1  UNL1        0.1100
      9 H          -1.4161    5.9666   -0.9802 H       1  UNL1        0.0646
     10 O          -2.7264    5.4387   -2.4068 O.3     1  UNL1       -0.3866
     11 C          -0.6827    4.0520   -1.8815 C.3     1  UNL1        0.1022
     12 H          -0.6829    4.3620   -0.8752 H       1  UNL1        0.0636
     13 O           0.2193    3.0917   -1.1253 O.3     1  UNL1       -0.3425
     14 C          -1.4325    3.0490   -2.7648 C.3     1  UNL1        0.0222
     15 N          -1.0629    3.3879   -4.1424 N.3     1  UNL1       -0.3276
     16 N          -2.2679    1.7408    0.1813 N.3     1  UNL1       -0.3211
     17 O           0.5678    2.2604    1.2256 O.3     1  UNL1       -0.3422
     18 C           0.8676    2.8130    2.5488 C.3     1  UNL1        0.1051
     19 H           0.0967    2.4077    3.2098 H       1  UNL1        0.0639
     20 C           0.9165    4.3607    2.6688 C.3     1  UNL1        0.0358
     21 H           1.6221    4.7470    1.9197 H       1  UNL1        0.0485
     22 C           1.3679    4.8125    4.0271 C.3     1  UNL1       -0.0142
     23 C           2.7428    4.3536    4.4184 C.3     1  UNL1        0.0533
     24 H           3.4500    4.7969    3.7075 H       1  UNL1        0.0525
     25 N           3.1452    4.9397    5.7376 N.am    1  UNL1       -0.3077
     26 C           2.4414    5.3660    6.8487 C.2     1  UNL1        0.2420
     27 O           2.9000    5.1783    7.9868 O.2     1  UNL1       -0.2730
     28 C           1.1612    6.1999    6.6937 C.3     1  UNL1        0.1320
     29 H           1.0543    6.6078    5.6956 H       1  UNL1        0.0690
     30 C          -0.0389    5.3424    7.1271 C.3     1  UNL1       -0.0059
     31 C          -1.3139    5.6413    6.3363 C.3     1  UNL1       -0.0041
     32 N          -2.4823    5.4763    7.1861 N.3     1  UNL1       -0.3299
     33 O           1.2533    7.3618    7.5115 O.3     1  UNL1       -0.3825
     34 C           2.8327    2.8073    4.3143 C.3     1  UNL1        0.1053
     35 H           2.2260    2.3981    5.1350 H       1  UNL1        0.0641
     36 C           2.2594    2.2609    2.9681 C.3     1  UNL1        0.1106
     37 H           2.9488    2.4990    2.1538 H       1  UNL1        0.0646
     38 O           2.2454    0.8310    3.0339 O.3     1  UNL1       -0.3865
     39 O           4.1293    2.2096    4.4968 O.3     1  UNL1       -0.3708
     40 C           5.3130    2.9613    4.2702 C.3     1  UNL1        0.0607
     41 C           5.7515    2.9729    2.7985 C.3     1  UNL1        0.0194
     42 N           6.5855    4.1456    2.5623 N.3     1  UNL1       -0.3126
     43 C           7.0880    4.3285    1.2004 C.3     1  UNL1        0.0083
     44 C           6.2742    3.7963    0.0152 C.3     1  UNL1        0.0056
     45 N           6.5590    2.3978   -0.2900 N.3     1  UNL1       -0.3288
     46 N          -0.3832    5.0211    2.5194 N.3     1  UNL1       -0.3250
     47 H          -2.4720    5.2035    1.4746 H       1  UNL1        0.2100
     48 H          -2.5043    6.3572   -2.6401 H       1  UNL1        0.2100
     49 H          -1.1586    2.0077   -2.5921 H       1  UNL1        0.0448
     50 H          -2.5191    3.0920   -2.7012 H       1  UNL1        0.0448
     51 H          -1.1607    4.3961   -4.2858 H       1  UNL1        0.1183
     52 H          -1.7299    2.9709   -4.7896 H       1  UNL1        0.1183
     53 H          -1.7060    1.3455   -0.5699 H       1  UNL1        0.1187
     54 H          -3.2207    1.8069   -0.1769 H       1  UNL1        0.1187
     55 H           0.6417    4.4573    4.7589 H       1  UNL1        0.0300
     56 H           1.3673    5.9001    4.0073 H       1  UNL1        0.0300
     57 H           4.1471    4.9354    5.9082 H       1  UNL1        0.1491
     58 H          -0.2027    5.4678    8.2043 H       1  UNL1        0.0307
     59 H           0.2089    4.2800    6.9938 H       1  UNL1        0.0307
     60 H          -1.4057    4.9434    5.4996 H       1  UNL1        0.0423
     61 H          -1.3047    6.6520    5.9219 H       1  UNL1        0.0423
     62 H          -3.3250    5.6335    6.6375 H       1  UNL1        0.1182
     63 H          -2.4814    6.1929    7.9089 H       1  UNL1        0.1182
     64 H           1.1292    7.1135    8.4416 H       1  UNL1        0.2104
     65 H           1.3810    0.5608    3.3939 H       1  UNL1        0.2100
     66 H           6.0894    2.4640    4.8643 H       1  UNL1        0.0572
     67 H           5.2444    3.9695    4.6732 H       1  UNL1        0.0572
     68 H           4.8756    3.0134    2.1533 H       1  UNL1        0.0446
     69 H           6.2882    2.0408    2.5764 H       1  UNL1        0.0446
     70 H           7.3754    4.1121    3.2074 H       1  UNL1        0.1221
     71 H           8.1224    3.9653    1.1533 H       1  UNL1        0.0436
     72 H           7.1584    5.4157    1.0697 H       1  UNL1        0.0436
     73 H           6.5263    4.3911   -0.8692 H       1  UNL1        0.0434
     74 H           5.2008    3.9339    0.1690 H       1  UNL1        0.0434
     75 H           5.8275    1.8027    0.0909 H       1  UNL1        0.1183
     76 H           7.4343    2.1036    0.1542 H       1  UNL1        0.1183
     77 H          -1.0203    4.7277    3.2563 H       1  UNL1        0.1185
     78 H          -0.2741    6.0294    2.5917 H       1  UNL1        0.1185
@<TRIPOS>BOND
     1     1     3    1
     2     1    13    1
     3     1    17    1
     4     1     2    1
     5     3     5    1
     6     3    16    1
     7     3     4    1
     8     5     8    1
     9     5     7    1
    10     5     6    1
    11     7    47    1
    12     8     9    1
    13     8    10    1
    14     8    11    1
    15    10    48    1
    16    11    13    1
    17    11    14    1
    18    11    12    1
    19    14    15    1
    20    14    49    1
    21    14    50    1
    22    15    51    1
    23    15    52    1
    24    16    53    1
    25    16    54    1
    26    18    20    1
    27    18    36    1
    28    18    19    1
    29    18    17    1
    30    20    21    1
    31    20    22    1
    32    20    46    1
    33    22    23    1
    34    22    55    1
    35    22    56    1
    36    23    25    1
    37    23    24    1
    38    25    26   am
    39    25    57    1
    40    26    27    2
    41    26    28    1
    42    28    29    1
    43    28    30    1
    44    28    33    1
    45    30    31    1
    46    30    58    1
    47    30    59    1
    48    31    32    1
    49    31    60    1
    50    31    61    1
    51    32    62    1
    52    32    63    1
    53    33    64    1
    54    34    23    1
    55    34    35    1
    56    34    39    1
    57    36    34    1
    58    36    38    1
    59    36    37    1
    60    38    65    1
    61    39    40    1
    62    40    41    1
    63    40    66    1
    64    40    67    1
    65    41    42    1
    66    41    68    1
    67    41    69    1
    68    42    43    1
    69    42    70    1
    70    43    44    1
    71    43    71    1
    72    43    72    1
    73    44    45    1
    74    44    73    1
    75    44    74    1
    76    45    75    1
    77    45    76    1
    78    46    77    1
    79    46    78    1
