3SKL_GNG_A_120
 OpenBabel10091713573D
Coordinates from PDB:3SKL:A:120 Model:1 without hydrogens
 32 34  0  0  0  0  0  0  0  0999 V2000
   33.5890   14.7090   13.6100 O   0  0  0  0  0  0  0  0  0  0  0  0
   34.2080   13.5570   14.2050 C   0  0  0  0  0  0  0  0  0  0  0  0
   33.2210   12.3910   14.2530 C   0  0  1  0  0  0  0  0  0  0  0  0
   32.1210   12.7330   15.0940 O   0  0  0  0  0  0  0  0  0  0  0  0
   30.8960   12.8310   14.3510 C   0  0  1  0  0  0  0  0  0  0  0  0
   30.3220   14.1720   14.6170 N   0  0  0  0  0  0  0  0  0  0  0  0
   30.4870   15.2970   13.9080 C   0  0  0  0  0  0  0  0  0  0  0  0
   29.8140   16.2980   14.5170 N   0  0  0  0  0  0  0  0  0  0  0  0
   29.2380   15.7820   15.6190 C   0  0  0  0  0  0  0  0  0  0  0  0
   29.5700   14.4490   15.6690 C   0  0  0  0  0  0  0  0  0  0  0  0
   29.1250   13.6760   16.6840 N   0  0  0  0  0  0  0  0  0  0  0  0
   28.3510   14.1780   17.6640 C   0  0  0  0  0  0  0  0  0  0  0  0
   27.9880   15.4820   17.6790 N   0  0  0  0  0  0  0  0  0  0  0  0
   28.3890   16.3280   16.7080 C   0  0  0  0  0  0  0  0  0  0  0  0
   28.0440   17.5320   16.7270 O   0  0  0  0  0  0  0  0  0  0  0  0
   27.9340   13.3490   18.6400 N   0  0  0  0  0  0  0  0  0  0  0  0
   31.2240   12.6040   12.8870 C   0  0  0  0  0  0  0  0  0  0  0  0
   32.6410   12.0730   12.8850 C   0  0  2  0  0  0  0  0  0  0  0  0
   32.6010   10.6530   12.7180 O   0  0  0  0  0  0  0  0  0  0  0  0
   34.2248   15.4412   13.5854 H   0  0  0  0  0  0  0  0  0  0  0  0
   34.5190   13.7976   15.2001 H   0  0  0  0  0  0  0  0  0  0  0  0
   35.0546   13.2729   13.6155 H   0  0  0  0  0  0  0  0  0  0  0  0
   33.7627   11.5436   14.6183 H   0  0  0  0  0  0  0  0  0  0  0  0
   30.1692   12.0995   14.6366 H   0  0  0  0  0  0  0  0  0  0  0  0
   31.0376   15.3845   13.0396 H   0  0  0  0  0  0  0  0  0  0  0  0
   29.3727   12.7235   16.7072 H   0  0  0  0  0  0  0  0  0  0  0  0
   28.1991   12.4010   18.6273 H   0  0  0  0  0  0  0  0  0  0  0  0
   27.3640   13.6910   19.3662 H   0  0  0  0  0  0  0  0  0  0  0  0
   31.1650   13.5223   12.3409 H   0  0  0  0  0  0  0  0  0  0  0  0
   30.5389   11.9274   12.4203 H   0  0  0  0  0  0  0  0  0  0  0  0
   33.2243   12.5060   12.0994 H   0  0  0  0  0  0  0  0  0  0  0  0
   32.0726   10.2585   13.4294 H   0  0  0  0  0  0  0  0  0  0  0  0
  1  2  1  0  0  0  0
  1 20  1  0  0  0  0
  2  3  1  0  0  0  0
  2 21  1  0  0  0  0
  2 22  1  0  0  0  0
  3  4  1  0  0  0  0
  3 18  1  0  0  0  0
  3 23  1  1  0  0  0
  4  5  1  0  0  0  0
  5  6  1  0  0  0  0
  5 17  1  0  0  0  0
  5 24  1  1  0  0  0
  6  7  1  0  0  0  0
  6 10  1  0  0  0  0
  7  8  2  0  0  0  0
  7 25  1  0  0  0  0
  8  9  1  0  0  0  0
  9 10  2  0  0  0  0
  9 14  1  0  0  0  0
 10 11  1  0  0  0  0
 11 12  1  0  0  0  0
 11 26  1  0  0  0  0
 12 13  2  0  0  0  0
 12 16  1  0  0  0  0
 13 14  1  0  0  0  0
 14 15  2  0  0  0  0
 16 27  1  0  0  0  0
 16 28  1  0  0  0  0
 17 18  1  0  0  0  0
 17 29  1  0  0  0  0
 17 30  1  0  0  0  0
 18 19  1  0  0  0  0
 18 31  1  6  0  0  0
 19 32  1  0  0  0  0
A    1
O5'
A    2
C5'
A    3
C4'
A    4
O4'
A    5
C1'
A    6
N9
A    7
C8
A    8
N7
A    9
C5
A   10
C4
A   11
N3
A   12
C2
A   13
N1
A   14
C6
A   15
O6
A   16
N2
A   17
C2'
A   18
C3'
A   19
O3'
M  END
>  <InstanceId>
3SKL_GNG_A_120

>  <ChemCompId>
GNG

>  <PdbId>
3SKL

>  <ChainId>
A

>  <ResidueNumber>
120

>  <InsertionCode>


>  <Model>
1

>  <AltIds>


>  <MissingHeavyAtoms>
0

>  <ObservedFormula>
C10 N5 O4

>  <Name>
2'-DEOXY-GUANOSINE

>  <SystematicName>
2-amino-9-[(2R,4S,5R)-4-hydroxy-5-(hydroxymethyl)oxolan-2-yl]-3H-purin-6-one

>  <Synonyms>


>  <Type>
NON-POLYMER

>  <Formula>
C10 H13 N5 O4

>  <MolecularWeight>
267.241

>  <ModifiedDate>
2011-06-04

>  <Parent>
G

>  <OneLetterCode>


>  <SubcomponentList>


>  <AmbiguousFlag>
N

>  <InChI>
InChI=1S/C10H13N5O4/c11-10-13-8-7(9(18)14-10)12-3-15(8)6-1-4(17)5(2-16)19-6/h3-6,16-17H,1-2H2,(H3,11,13,14,18)/t4-,5+,6+/m0/s1

>  <InChIKey>
YKBGVTZYEHREMT-KVQBGUIXSA-N

>  <SMILES>
c1nc2c(n1[C@H]3C[C@@H]([C@H](O3)CO)O)NC(=NC2=O)N

$$$$
