REMARK  2 active torsions:
REMARK  status: ('A' for Active; 'I' for Inactive)
REMARK    1  A    between atoms: C4*_3  and  C5*_2 
REMARK    2  A    between atoms: C1*_5  and  N9_6 
ROOT
ATOM      1  N9   G1 d          30.322  14.172  14.617  0.00  0.00    -0.271 N 
ATOM      2  C8   G1 d          30.487  15.297  13.908  0.00  0.00     0.182 A 
ATOM      3  N7   G1 d          29.814  16.298  14.517  0.00  0.00    -0.217 NA
ATOM      4  C5   G1 d          29.238  15.782  15.619  0.00  0.00     0.176 A 
ATOM      5  C4   G1 d          29.570  14.449  15.669  0.00  0.00     0.188 A 
ATOM      6  N3   G1 d          29.125  13.676  16.684  0.00  0.00    -0.038 NA
ATOM      7  C2   G1 d          28.351  14.178  17.664  0.00  0.00     0.773 A 
ATOM      8  N1   G1 d          27.988  15.482  17.679  0.00  0.00    -0.016 NA
ATOM      9  C6   G1 d          28.389  16.328  16.708  0.00  0.00     0.316 A 
ATOM     10  O6   G1 d          28.044  17.532  16.727  0.00  0.00    -0.263 OA
ATOM     11  N2   G1 d          27.934  13.349  18.640  0.00  0.00     0.062 N 
ENDROOT
BRANCH   1  12
ATOM     12  C1*  G1 d          30.896  12.831  14.351  0.00  0.00     0.210 C 
ATOM     13  O4*  G1 d          32.121  12.733  15.094  0.00  0.00    -0.333 OA
ATOM     14  C4*  G1 d          33.221  12.391  14.253  0.00  0.00     0.181 C 
ATOM     15  C3*  G1 d          32.641  12.073  12.885  0.00  0.00     0.186 C 
ATOM     16  C2*  G1 d          31.224  12.604  12.887  0.00  0.00     0.090 C 
ATOM     17  O3*  G1 d          32.601  10.653  12.718  0.00  0.00    -0.221 OA
BRANCH  14  18
ATOM     18  C5*  G1 d          34.208  13.557  14.205  0.00  0.00     0.214 C 
ATOM     19  O5*  G1 d          33.589  14.709  13.610  0.00  0.00    -0.218 OA
ENDBRANCH  14  18
ENDBRANCH   1  12
TORSDOF 2
