@<TRIPOS>MOLECULE
3SKL_GNG_A_120
 19 21 0 0 0
SMALL
GASTEIGER
****
Coordinates from PDB:3SKL:A:120 Model:1 without hydrogens
@<TRIPOS>ATOM
      1 O5*        33.5890   14.7090   13.6100 O.3     1    G1       -0.2176
      2 C5*        34.2080   13.5570   14.2050 C.3     1    G1        0.2141
      3 C4*        33.2210   12.3910   14.2530 C.3     1    G1        0.1804
      4 O4*        32.1210   12.7330   15.0940 O.3     1    G1       -0.3325
      5 C1*        30.8960   12.8310   14.3510 C.3     1    G1        0.2095
      6 N9         30.3220   14.1720   14.6170 N.ar    1    G1       -0.2713
      7 C8         30.4870   15.2970   13.9080 C.ar    1    G1        0.1816
      8 N7         29.8140   16.2980   14.5170 N.ar    1    G1       -0.2173
      9 C5         29.2380   15.7820   15.6190 C.ar    1    G1        0.1748
     10 C4         29.5700   14.4490   15.6690 C.ar    1    G1        0.1722
     11 N3         29.1250   13.6760   16.6840 N.ar    1    G1       -0.1918
     12 C2         28.3510   14.1780   17.6640 C.ar    1    G1        0.2606
     13 N1         27.9880   15.4820   17.6790 N.ar    1    G1       -0.1709
     14 C6         28.3890   16.3280   16.7080 C.ar    1    G1        0.3023
     15 O6         28.0440   17.5320   16.7270 O.2     1    G1       -0.2633
     16 N2         27.9340   13.3490   18.6400 N.pl3   1    G1       -0.0859
     17 C2*        31.2240   12.6040   12.8870 C.3     1    G1        0.0894
     18 C3*        32.6410   12.0730   12.8850 C.3     1    G1        0.1860
     19 O3*        32.6010   10.6530   12.7180 O.3     1    G1       -0.2203
@<TRIPOS>BOND
     1     1     2    1
     2     3     2    1
     3     3     4    1
     4     3    18    1
     5     4     5    1
     6     5     6    1
     7     5    17    1
     8     6     7   ar
     9     6    10   ar
    10     7     8   ar
    11     8     9   ar
    12     9    10   ar
    13     9    14   ar
    14    10    11   ar
    15    11    12   ar
    16    12    13   ar
    17    12    16    1
    18    13    14   ar
    19    14    15    2
    20    17    18    1
    21    18    19    1
