@<TRIPOS>MOLECULE
2KD4_PRL_A_17
 27 29 0 0 0
SMALL
GASTEIGER

@<TRIPOS>ATOM
      1 C           2.8321   -0.6359   -0.5795 C.ar    1  UNL1       -0.0508
      2 C           3.6457    0.2165    0.0677 C.ar    1  UNL1       -0.0404
      3 C           3.1673    1.0785    1.1591 C.ar    1  UNL1        0.0266
      4 C           1.9833    0.7614    1.7161 C.ar    1  UNL1       -0.0150
      5 C           0.9748    0.1172    0.8518 C.ar    1  UNL1        0.0734
      6 N          -0.3268    0.3356    1.1452 N.ar    1  UNL1       -0.2466
      7 C          -1.2564   -0.1898    0.3316 C.ar    1  UNL1        0.0734
      8 C          -2.5837    0.1848    0.4779 C.ar    1  UNL1       -0.0150
      9 C          -3.5754   -0.2848   -0.3836 C.ar    1  UNL1        0.0266
     10 C          -3.2435   -1.2227   -1.3660 C.ar    1  UNL1       -0.0404
     11 C          -1.9169   -1.6204   -1.5222 C.ar    1  UNL1       -0.0508
     12 C          -0.9167   -1.0754   -0.7105 C.ar    1  UNL1        0.0011
     13 C           0.4428   -1.2775   -0.9974 C.ar    1  UNL1       -0.0434
     14 C           1.4092   -0.6451   -0.2317 C.ar    1  UNL1        0.0011
     15 N          -4.8553    0.3100   -0.3767 N.pl3   1  UNL1       -0.3579
     16 N           4.0772    1.9417    1.7509 N.pl3   1  UNL1       -0.3579
     17 H           3.1978   -1.3101   -1.3422 H       1  UNL1        0.0625
     18 H           4.7013    0.2541   -0.1828 H       1  UNL1        0.0636
     19 H           1.6503    1.1765    2.6552 H       1  UNL1        0.0657
     20 H          -2.8738    0.8098    1.3194 H       1  UNL1        0.0657
     21 H          -4.0028   -1.6224   -2.0364 H       1  UNL1        0.0636
     22 H          -1.6894   -2.4104   -2.2352 H       1  UNL1        0.0625
     23 H           0.7305   -1.8778   -1.8531 H       1  UNL1        0.0631
     24 H          -5.5489   -0.2834   -0.8288 H       1  UNL1        0.1423
     25 H          -5.1579    0.5969    0.5512 H       1  UNL1        0.1423
     26 H           4.3590    2.6745    1.0977 H       1  UNL1        0.1423
     27 H           3.6810    2.3794    2.5849 H       1  UNL1        0.1423
@<TRIPOS>BOND
     1     2     1   ar
     2     3     2   ar
     3     4     3   ar
     4     5     4   ar
     5     6     5   ar
     6     7     6   ar
     7     8     7   ar
     8     9     8   ar
     9    10     9   ar
    10    11    10   ar
    11    12    11   ar
    12    12     7   ar
    13    13    12   ar
    14    14    13   ar
    15    14     1   ar
    16    14     5   ar
    17    15     9    1
    18    16     3    1
    19     1    17    1
    20     2    18    1
    21     4    19    1
    22     8    20    1
    23    10    21    1
    24    11    22    1
    25    13    23    1
    26    15    24    1
    27    15    25    1
    28    16    26    1
    29    16    27    1
