@<TRIPOS>MOLECULE
1NTB_SRY_A_25
 40 42 0 0 0
SMALL
GASTEIGER
****
Coordinates from PDB:1NTB:A:25 Model:1 without hydrogens
@<TRIPOS>ATOM
      1 C           7.5710   33.9150   -1.3790 C.3     1  UNL1        0.2474
      2 N           8.7800   33.3760   -0.6450 N.pl3   1  UNL1       -0.0846
      3 C           9.8540   33.3210   -1.4090 C.cat   1  UNL1        0.5346
      4 N          10.5830   32.2830   -1.2630 N.pl3   1  UNL1        0.1354
      5 N          10.1300   34.2440   -2.2620 N.pl3   1  UNL1        0.1354
      6 C           6.4840   34.3450   -0.4000 C.3     1  UNL1        0.2360
      7 O           7.1390   35.3660    0.4720 O.3     1  UNL1       -0.2154
      8 C           5.2290   34.8690   -1.0950 C.3     1  UNL1        0.2442
      9 N           4.1650   35.2960   -0.2100 N.pl3   1  UNL1       -0.0847
     10 C           4.6030   36.1660    0.5680 C.cat   1  UNL1        0.5346
     11 N           4.7640   35.9830    1.8300 N.pl3   1  UNL1        0.1354
     12 N           4.8410   37.2840    0.0780 N.pl3   1  UNL1        0.1354
     13 C           4.7000   33.7760   -1.9870 C.3     1  UNL1        0.1929
     14 O           3.6340   34.4030   -2.7530 O.3     1  UNL1       -0.3247
     15 C           5.7800   33.3630   -3.0230 C.3     1  UNL1        0.2162
     16 O           5.2570   32.3440   -3.8610 O.3     1  UNL1       -0.2175
     17 C           7.0220   32.8300   -2.2830 C.3     1  UNL1        0.2268
     18 O           8.0290   32.4440   -3.2260 O.3     1  UNL1       -0.2165
     19 C           2.4160   33.8660   -2.2480 C.3     1  UNL1        0.2666
     20 C           1.2460   34.7650   -2.6040 C.3     1  UNL1        0.2110
     21 C           0.1480   33.7860   -2.9250 C.3     1  UNL1        0.2380
     22 O          -0.5720   33.4510   -1.7340 O.3     1  UNL1       -0.2124
     23 C          -0.8020   34.3170   -3.9730 C.2     1  UNL1        0.2421
     24 O          -0.1440   35.2860   -4.7720 O.2     1  UNL1       -0.2854
     25 C           0.8630   32.5880   -3.4310 C.3     1  UNL1        0.1554
     26 C           0.1160   31.3340   -3.0570 C.3     1  UNL1        0.0353
     27 O           2.1590   32.5850   -2.8280 O.3     1  UNL1       -0.3281
     28 O           0.9430   35.5300   -1.5280 O.3     1  UNL1       -0.3236
     29 C          -0.2700   36.2350   -1.7170 C.3     1  UNL1        0.2546
     30 C          -0.7990   36.6580   -0.3680 C.3     1  UNL1        0.1620
     31 N          -1.0600   35.5110    0.4280 N.3     1  UNL1       -0.2103
     32 C          -2.3520   34.8870    0.3880 C.3     1  UNL1        0.1077
     33 C           0.2600   37.5180    0.3010 C.3     1  UNL1        0.2054
     34 O          -0.1810   37.9340    1.5750 O.3     1  UNL1       -0.2186
     35 C           0.4890   38.7280   -0.6050 C.3     1  UNL1        0.2132
     36 O           1.4760   39.5820   -0.0480 O.3     1  UNL1       -0.2176
     37 C           0.9380   38.2380   -1.9820 C.3     1  UNL1        0.1834
     38 O          -0.0550   37.3790   -2.5400 O.3     1  UNL1       -0.3265
     39 C           1.1360   39.4460   -2.8980 C.3     1  UNL1        0.2142
     40 O           2.0070   40.3710   -2.2670 O.3     1  UNL1       -0.2176
@<TRIPOS>BOND
     1     1     2    1
     2     1     6    1
     3     1    17    1
     4     2     3    1
     5     3     4    1
     6     3     5    2
     7     6     7    1
     8     6     8    1
     9     8     9    1
    10     8    13    1
    11     9    10    1
    12    10    11    1
    13    10    12    2
    14    13    14    1
    15    13    15    1
    16    15    16    1
    17    15    17    1
    18    17    18    1
    19    19    14    1
    20    19    20    1
    21    19    27    1
    22    20    21    1
    23    20    28    1
    24    21    22    1
    25    21    23    1
    26    21    25    1
    27    23    24    2
    28    25    26    1
    29    25    27    1
    30    29    28    1
    31    29    30    1
    32    29    38    1
    33    30    31    1
    34    30    33    1
    35    31    32    1
    36    33    34    1
    37    33    35    1
    38    35    36    1
    39    35    37    1
    40    37    38    1
    41    37    39    1
    42    39    40    1
