1NTB_SRY_A_25
 OpenBabel10091713573D
Coordinates from PDB:1NTB:A:25 Model:1 without hydrogens
 40 42  0  0  0  0  0  0  0  0999 V2000
    7.5710   33.9150   -1.3790 C   0  0  2  0  0  0  0  0  0  0  0  0
    8.7800   33.3760   -0.6450 N   0  0  0  0  0  0  0  0  0  0  0  0
    9.8540   33.3210   -1.4090 C   0  0  0  0  0  0  0  0  0  0  0  0
   10.5830   32.2830   -1.2630 N   0  0  0  0  0  0  0  0  0  0  0  0
   10.1300   34.2440   -2.2620 N   0  0  0  0  0  0  0  0  0  0  0  0
    6.4840   34.3450   -0.4000 C   0  0  1  0  0  0  0  0  0  0  0  0
    7.1390   35.3660    0.4720 O   0  0  0  0  0  0  0  0  0  0  0  0
    5.2290   34.8690   -1.0950 C   0  0  2  0  0  0  0  0  0  0  0  0
    4.1650   35.2960   -0.2100 N   0  0  0  0  0  0  0  0  0  0  0  0
    4.6030   36.1660    0.5680 C   0  0  0  0  0  0  0  0  0  0  0  0
    4.7640   35.9830    1.8300 N   0  0  0  0  0  0  0  0  0  0  0  0
    4.8410   37.2840    0.0780 N   0  0  0  0  0  0  0  0  0  0  0  0
    4.7000   33.7760   -1.9870 C   0  0  1  0  0  0  0  0  0  0  0  0
    3.6340   34.4030   -2.7530 O   0  0  0  0  0  0  0  0  0  0  0  0
    5.7800   33.3630   -3.0230 C   0  0  2  0  0  0  0  0  0  0  0  0
    5.2570   32.3440   -3.8610 O   0  0  0  0  0  0  0  0  0  0  0  0
    7.0220   32.8300   -2.2830 C   0  0  1  0  0  0  0  0  0  0  0  0
    8.0290   32.4440   -3.2260 O   0  0  0  0  0  0  0  0  0  0  0  0
    2.4160   33.8660   -2.2480 C   0  0  1  0  0  0  0  0  0  0  0  0
    1.2460   34.7650   -2.6040 C   0  0  1  0  0  0  0  0  0  0  0  0
    0.1480   33.7860   -2.9250 C   0  0  1  0  0  0  0  0  0  0  0  0
   -0.5720   33.4510   -1.7340 O   0  0  0  0  0  0  0  0  0  0  0  0
   -0.8020   34.3170   -3.9730 C   0  0  0  0  0  0  0  0  0  0  0  0
   -0.1440   35.2860   -4.7720 O   0  0  0  0  0  0  0  0  0  0  0  0
    0.8630   32.5880   -3.4310 C   0  0  2  0  0  0  0  0  0  0  0  0
    0.1160   31.3340   -3.0570 C   0  0  0  0  0  0  0  0  0  0  0  0
    2.1590   32.5850   -2.8280 O   0  0  0  0  0  0  0  0  0  0  0  0
    0.9430   35.5300   -1.5280 O   0  0  0  0  0  0  0  0  0  0  0  0
   -0.2700   36.2350   -1.7170 C   0  0  1  0  0  0  0  0  0  0  0  0
   -0.7990   36.6580   -0.3680 C   0  0  1  0  0  0  0  0  0  0  0  0
   -1.0600   35.5110    0.4280 N   0  0  0  0  0  0  0  0  0  0  0  0
   -2.3520   34.8870    0.3880 C   0  0  0  0  0  0  0  0  0  0  0  0
    0.2600   37.5180    0.3010 C   0  0  2  0  0  0  0  0  0  0  0  0
   -0.1810   37.9340    1.5750 O   0  0  0  0  0  0  0  0  0  0  0  0
    0.4890   38.7280   -0.6050 C   0  0  1  0  0  0  0  0  0  0  0  0
    1.4760   39.5820   -0.0480 O   0  0  0  0  0  0  0  0  0  0  0  0
    0.9380   38.2380   -1.9820 C   0  0  1  0  0  0  0  0  0  0  0  0
   -0.0550   37.3790   -2.5400 O   0  0  0  0  0  0  0  0  0  0  0  0
    1.1360   39.4460   -2.8980 C   0  0  0  0  0  0  0  0  0  0  0  0
    2.0070   40.3710   -2.2670 O   0  0  0  0  0  0  0  0  0  0  0  0
  1  2  1  1  0  0  0
  1  6  1  0  0  0  0
  1 17  1  0  0  0  0
  2  3  1  0  0  0  0
  3  4  1  0  0  0  0
  3  5  2  0  0  0  0
  6  7  1  1  0  0  0
  6  8  1  0  0  0  0
  8  9  1  1  0  0  0
  8 13  1  0  0  0  0
  9 10  1  0  0  0  0
 10 11  1  0  0  0  0
 10 12  2  0  0  0  0
 13 14  1  6  0  0  0
 13 15  1  0  0  0  0
 15 16  1  6  0  0  0
 15 17  1  0  0  0  0
 17 18  1  6  0  0  0
 19 14  1  6  0  0  0
 19 20  1  0  0  0  0
 19 27  1  0  0  0  0
 20 21  1  0  0  0  0
 20 28  1  1  0  0  0
 21 22  1  1  0  0  0
 21 23  1  0  0  0  0
 21 25  1  0  0  0  0
 23 24  2  0  0  0  0
 25 26  1  1  0  0  0
 25 27  1  0  0  0  0
 29 28  1  1  0  0  0
 29 30  1  0  0  0  0
 29 38  1  0  0  0  0
 30 31  1  1  0  0  0
 30 33  1  0  0  0  0
 31 32  1  0  0  0  0
 33 34  1  1  0  0  0
 33 35  1  0  0  0  0
 35 36  1  1  0  0  0
 35 37  1  0  0  0  0
 37 38  1  0  0  0  0
 37 39  1  6  0  0  0
 39 40  1  0  0  0  0
A    1
C11
A    2
N11
A    3
CA1
A    4
NB1
A    5
NC1
A    6
C21
A    7
O21
A    8
C31
A    9
N31
A   10
CD1
A   11
NE1
A   12
NF1
A   13
C41
A   14
O41
A   15
C51
A   16
O51
A   17
C61
A   18
O61
A   19
C12
A   20
C22
A   21
C32
A   22
O32
A   23
CG2
A   24
OG2
A   25
C42
A   26
CH2
A   27
O42
A   28
O13
A   29
C13
A   30
C23
A   31
N23
A   32
CI3
A   33
C33
A   34
O33
A   35
C43
A   36
O43
A   37
C53
A   38
O53
A   39
C63
A   40
O63
M  END
>  <InstanceId>
1NTB_SRY_A_25

>  <ChemCompId>
SRY

>  <PdbId>
1NTB

>  <ChainId>
A

>  <ResidueNumber>
25

>  <InsertionCode>


>  <Model>
1

>  <AltIds>


>  <MissingHeavyAtoms>
0

>  <ObservedFormula>
C21 N7 O12

>  <Name>
STREPTOMYCIN

>  <SystematicName>
1-[(1R,2R,3S,4R,5R,6S)-3-carbamimidamido-4-[(2R,3R,4R,5S)-3-[(2S,3S,4S,5R,6S)-4,5-dihydroxy-6-(hydroxymethyl)-3-methylamino-oxan-2-yl]oxy-4-hydroxy-4-methanoyl-5-methyl-oxolan-2-yl]oxy-2,5,6-trihydroxy-cyclohexyl]guanidine

>  <Synonyms>
STREPTOMYCIN A

>  <Type>
NON-POLYMER

>  <Formula>
C21 H39 N7 O12

>  <MolecularWeight>
581.574

>  <ModifiedDate>
2012-01-05

>  <Parent>


>  <OneLetterCode>


>  <SubcomponentList>


>  <AmbiguousFlag>
N

>  <InChI>
InChI=1S/C21H39N7O12/c1-5-21(36,4-30)16(40-17-9(26-2)13(34)10(31)6(3-29)38-17)18(37-5)39-15-8(28-20(24)25)11(32)7(27-19(22)23)12(33)14(15)35/h4-18,26,29,31-36H,3H2,1-2H3,(H4,22,23,27)(H4,24,25,28)/t5-,6-,7+,8-,9-,10-,11+,12-,13-,14+,15+,16-,17-,18-,21+/m0/s1

>  <InChIKey>
UCSJYZPVAKXKNQ-HZYVHMACSA-N

>  <SMILES>
[H]/N=C(/N)\N[C@@H]1[C@H]([C@@H]([C@H]([C@@H]([C@H]1O)O)O[C@H]2[C@@H]([C@]([C@@H](O2)C)(C=O)O)O[C@H]3[C@H]([C@@H]([C@H]([C@@H](O3)CO)O)O)NC)N/C(=N\[H])/N)O

$$$$
