
 OpenBabel03221816513D

 26 25  0  0  1  0  0  0  0  0999 V2000
    3.0526    0.9269    1.0059 N   0  0  0  0  0  0  0  0  0  0  0  0
    2.5207   -0.0434    0.0338 C   0  0  2  0  0  0  0  0  0  0  0  0
    2.8217    0.2620   -0.9741 H   0  0  0  0  0  0  0  0  0  0  0  0
    0.9931   -0.0406    0.0796 C   0  0  0  0  0  0  0  0  0  0  0  0
    0.3353    0.6027    0.8938 O   0  0  0  0  0  0  0  0  0  0  0  0
    3.0398   -1.4539    0.3375 C   0  0  0  0  0  0  0  0  0  0  0  0
    4.5694   -1.5503    0.3097 C   0  0  0  0  0  0  0  0  0  0  0  0
    5.0443   -2.9722    0.5957 C   0  0  0  0  0  0  0  0  0  0  0  0
    6.5138   -3.0460    0.5839 N   0  0  0  0  0  0  0  0  0  0  0  0
    7.2183   -4.1657    0.8069 C   0  0  0  0  0  0  0  0  0  0  0  0
    6.6244   -5.3347    1.0593 N   0  3  0  0  0  0  0  0  0  0  0  0
    7.1583   -6.1770    1.2284 H   0  0  0  0  0  0  0  0  0  0  0  0
    5.6174   -5.4157    1.0994 H   0  0  0  0  0  0  0  0  0  0  0  0
    8.5536   -4.1213    0.7754 N   0  0  0  0  0  0  0  0  0  0  0  0
    2.5907    0.7564    1.9063 H   0  0  0  0  0  0  0  0  0  0  0  0
    2.6919    1.8535    0.7540 H   0  0  0  0  0  0  0  0  0  0  0  0
    0.4958   -0.6682   -0.6802 H   0  0  0  0  0  0  0  0  0  0  0  0
    2.6213   -2.1550   -0.3965 H   0  0  0  0  0  0  0  0  0  0  0  0
    2.6704   -1.7848    1.3175 H   0  0  0  0  0  0  0  0  0  0  0  0
    5.0113   -0.8773    1.0541 H   0  0  0  0  0  0  0  0  0  0  0  0
    4.9467   -1.2279   -0.6685 H   0  0  0  0  0  0  0  0  0  0  0  0
    4.6610   -3.6522   -0.1721 H   0  0  0  0  0  0  0  0  0  0  0  0
    4.6952   -3.2877    1.5846 H   0  0  0  0  0  0  0  0  0  0  0  0
    7.0336   -2.1936    0.4107 H   0  0  0  0  0  0  0  0  0  0  0  0
    9.0552   -3.2618    0.5907 H   0  0  0  0  0  0  0  0  0  0  0  0
    9.1131   -4.9487    0.9394 H   0  0  0  0  0  0  0  0  0  0  0  0
  1 15  1  0  0  0  0
  1 16  1  0  0  0  0
  2  4  1  0  0  0  0
  2  6  1  0  0  0  0
  2  3  1  6  0  0  0
  2  1  1  0  0  0  0
  4  5  2  0  0  0  0
  4 17  1  0  0  0  0
  6  7  1  0  0  0  0
  6 18  1  0  0  0  0
  6 19  1  0  0  0  0
  7  8  1  0  0  0  0
  7 20  1  0  0  0  0
  7 21  1  0  0  0  0
  8  9  1  0  0  0  0
  8 22  1  0  0  0  0
  8 23  1  0  0  0  0
  9 10  1  0  0  0  0
  9 24  1  0  0  0  0
 10 11  2  0  0  0  0
 10 14  1  0  0  0  0
 11 12  1  0  0  0  0
 11 13  1  0  0  0  0
 14 25  1  0  0  0  0
 14 26  1  0  0  0  0
M  CHG  1  11   1
M  END
$$$$
