REMARK  6 active torsions:
REMARK  status: ('A' for Active; 'I' for Inactive)
REMARK    1  A    between atoms: CA_2  and  N_1 
REMARK    2  A    between atoms: CA_2  and  C_3 
REMARK    3  A    between atoms: CA_2  and  CB_5 
REMARK    4  A    between atoms: CB_5  and  CG_6 
REMARK    5  A    between atoms: CG_6  and  CD_7 
REMARK    6  A    between atoms: CD_7  and  NE_8 
REMARK       I    between atoms: NE_8  and  CZ_9 
REMARK       I    between atoms: CZ_9  and  NH1_10 
ROOT
ATOM      1  CD  ARG d   1       5.044  -2.972   0.596  0.00  0.00     0.138 C 
ENDROOT
BRANCH   1   2
ATOM      2  CG  ARG d   1       4.569  -1.550   0.310  0.00  0.00     0.023 C 
BRANCH   2   3
ATOM      3  CB  ARG d   1       3.040  -1.454   0.338  0.00  0.00     0.044 C 
BRANCH   3   4
ATOM      4  CA  ARG d   1       2.521  -0.043   0.034  0.00  0.00     0.278 C 
BRANCH   4   5
ATOM      5  C   ARG d   1       0.993  -0.041   0.080  0.00  0.00     0.266 C 
ATOM      6  O   ARG d   1       0.335   0.603   0.894  0.00  0.00    -0.305 OA
ENDBRANCH   4   5
BRANCH   4   7
ATOM      7  N   ARG d   1       3.053   0.927   1.006  0.00  0.00     0.089 N 
ATOM      8  H1  ARG d   1       2.591   0.756   1.906  0.00  0.00     0.313 HD
ATOM      9  H2  ARG d   1       2.692   1.853   0.754  0.00  0.00     0.313 HD
ENDBRANCH   4   7
ENDBRANCH   3   4
ENDBRANCH   2   3
ENDBRANCH   1   2
BRANCH   1  10
ATOM     10  NE  ARG d   1       6.514  -3.046   0.584  0.00  0.00    -0.227 N 
ATOM     11  CZ  ARG d   1       7.218  -4.166   0.807  0.00  0.00     0.665 C 
ATOM     12  NH1 ARG d   1       6.624  -5.335   1.059  0.00  0.00    -0.235 N 
ATOM     13  NH2 ARG d   1       8.554  -4.121   0.775  0.00  0.00    -0.235 N 
ATOM     14 1HH1 ARG d   1       7.158  -6.177   1.228  0.00  0.00     0.174 HD
ATOM     15 2HH1 ARG d   1       5.617  -5.416   1.099  0.00  0.00     0.174 HD
ATOM     16 1HH2 ARG d   1       9.055  -3.262   0.591  0.00  0.00     0.174 HD
ATOM     17 2HH2 ARG d   1       9.113  -4.949   0.939  0.00  0.00     0.174 HD
ATOM     18  HE  ARG d   1       7.034  -2.194   0.411  0.00  0.00     0.177 HD
ENDBRANCH   1  10
TORSDOF 6
