@<TRIPOS>MOLECULE
*****
 26 25 0 0 0
SMALL
GASTEIGER

@<TRIPOS>ATOM
      1 N           3.0526    0.9269    1.0059 N.3     1  ARG1       -0.3215
      2 CA          2.5207   -0.0434    0.0338 C.3     1  ARG1        0.0610
      3 HA          2.8217    0.2620   -0.9741 H       1  ARG1        0.0534
      4 C           0.9931   -0.0406    0.0796 C.2     1  ARG1        0.1369
      5 O           0.3353    0.6027    0.8938 O.2     1  ARG1       -0.2994
      6 CB          3.0398   -1.4539    0.3375 C.3     1  ARG1       -0.0283
      7 CG          4.5694   -1.5503    0.3097 C.3     1  ARG1       -0.0204
      8 CD          5.0443   -2.9722    0.5957 C.3     1  ARG1        0.0646
      9 NE          6.5138   -3.0460    0.5839 N.pl3   1  ARG1       -0.2787
     10 CZ          7.2183   -4.1657    0.8069 C.cat   1  ARG1        0.3410
     11 NH1         6.6244   -5.3347    1.0593 N.pl3   1  ARG1       -0.2919
     12 HH11        7.1583   -6.1770    1.2284 H       1  ARG1        0.2545
     13 HH12        5.6174   -5.4157    1.0994 H       1  ARG1        0.2545
     14 NH2         8.5536   -4.1213    0.7754 N.pl3   1  ARG1       -0.2919
     15 H1          2.5907    0.7564    1.9063 H       1  ARG1        0.1188
     16 H2          2.6919    1.8535    0.7540 H       1  ARG1        0.1188
     17 H           0.4958   -0.6682   -0.6802 H       1  ARG1        0.1043
     18 HB1         2.6213   -2.1550   -0.3965 H       1  ARG1        0.0285
     19 HB2         2.6704   -1.7848    1.3175 H       1  ARG1        0.0285
     20 HG1         5.0113   -0.8773    1.0541 H       1  ARG1        0.0296
     21 HG2         4.9467   -1.2279   -0.6685 H       1  ARG1        0.0296
     22 HD1         4.6610   -3.6522   -0.1721 H       1  ARG1        0.0655
     23 HD2         4.6952   -3.2877    1.5846 H       1  ARG1        0.0655
     24 HE          7.0336   -2.1936    0.4107 H       1  ARG1        0.2578
     25 HH21        9.0552   -3.2618    0.5907 H       1  ARG1        0.2545
     26 HH22        9.1131   -4.9487    0.9394 H       1  ARG1        0.2545
@<TRIPOS>BOND
     1     1    15    1
     2     1    16    1
     3     2     4    1
     4     2     6    1
     5     2     3    1
     6     2     1    1
     7     4     5    2
     8     4    17    1
     9     6     7    1
    10     6    18    1
    11     6    19    1
    12     7     8    1
    13     7    20    1
    14     7    21    1
    15     8     9    1
    16     8    22    1
    17     8    23    1
    18     9    10    1
    19     9    24    1
    20    10    11    2
    21    10    14    1
    22    11    12    1
    23    11    13    1
    24    14    25    1
    25    14    26    1
