2ET8_XXX_B_51
 OpenBabel10091713573D
Coordinates from PDB:2ET8:B:51 Model:1 without hydrogens
 48 49  0  0  1  0  0  0  0  0999 V2000
   21.7370   15.4650   34.7710 O   0  0  0  0  0  0  0  0  0  0  0  0
   22.6440   16.1750   35.6500 C   0  0  2  0  0  0  0  0  0  0  0  0
   23.9610   16.5350   34.8620 C   0  0  1  0  0  0  0  0  0  0  0  0
   23.6850   17.3530   33.7180 O   0  0  0  0  0  0  0  0  0  0  0  0
   24.9210   17.2890   35.7490 C   0  0  2  0  0  0  0  0  0  0  0  0
   26.1700   17.6170   34.9800 N   0  0  0  0  0  0  0  0  0  0  0  0
   25.2540   16.4250   36.9870 C   0  0  0  0  0  0  0  0  0  0  0  0
   23.9240   16.1170   37.7350 C   0  0  2  0  0  0  0  0  0  0  0  0
   24.3210   15.2770   38.9440 N   0  0  0  0  0  0  0  0  0  0  0  0
   23.0240   15.2680   36.8870 C   0  0  1  0  0  0  0  0  0  0  0  0
   21.8550   14.9810   37.5480 O   0  0  0  0  0  0  0  0  0  0  0  0
   20.8930   14.1570   36.9760 C   0  0  1  0  0  0  0  0  0  0  0  0
   21.1980   12.7740   37.5500 O   0  0  0  0  0  0  0  0  0  0  0  0
   21.0300   12.7040   39.0340 C   0  0  2  0  0  0  0  0  0  0  0  0
   21.3240   11.2790   39.5470 C   0  0  0  0  0  0  0  0  0  0  0  0
   22.7210   10.8830   39.2210 N   0  0  0  0  0  0  0  0  0  0  0  0
   19.6140   13.0610   39.3750 C   0  0  1  0  0  0  0  0  0  0  0  0
   19.4640   13.0090   40.7530 O   0  0  0  0  0  0  0  0  0  0  0  0
   19.2620   14.4370   38.8890 C   0  0  2  0  0  0  0  0  0  0  0  0
   17.8980   14.7440   39.2120 O   0  0  0  0  0  0  0  0  0  0  0  0
   19.4370   14.4860   37.4100 C   0  0  1  0  0  0  0  0  0  0  0  0
   19.0770   15.8610   36.9090 N   0  0  0  0  0  0  0  0  0  0  0  0
   21.5102   16.0299   34.0158 H   0  0  0  0  0  0  0  0  0  0  0  0
   22.1639   17.0667   35.9955 H   0  0  0  0  0  0  0  0  0  0  0  0
   24.3919   15.6088   34.5436 H   0  0  0  0  0  0  0  0  0  0  0  0
   23.2944   18.1924   34.0074 H   0  0  0  0  0  0  0  0  0  0  0  0
   24.4739   18.2050   36.0746 H   0  0  0  0  0  0  0  0  0  0  0  0
   26.6098   16.7535   34.6616 H   0  0  0  0  0  0  0  0  0  0  0  0
   26.8167   18.1257   35.5828 H   0  0  0  0  0  0  0  0  0  0  0  0
   25.9183   16.9591   37.6337 H   0  0  0  0  0  0  0  0  0  0  0  0
   25.7291   15.5146   36.6863 H   0  0  0  0  0  0  0  0  0  0  0  0
   23.4156   17.0248   37.9848 H   0  0  0  0  0  0  0  0  0  0  0  0
   24.7983   14.4323   38.6292 H   0  0  0  0  0  0  0  0  0  0  0  0
   23.4849   15.0197   39.4685 H   0  0  0  0  0  0  0  0  0  0  0  0
   23.5087   14.3503   36.6269 H   0  0  0  0  0  0  0  0  0  0  0  0
   20.9378   14.2573   35.9117 H   0  0  0  0  0  0  0  0  0  0  0  0
   21.7140   13.3853   39.4954 H   0  0  0  0  0  0  0  0  0  0  0  0
   20.6466   10.5919   39.0844 H   0  0  0  0  0  0  0  0  0  0  0  0
   21.1997   11.2623   40.6096 H   0  0  0  0  0  0  0  0  0  0  0  0
   22.8507   10.8955   38.2094 H   0  0  0  0  0  0  0  0  0  0  0  0
   22.8994    9.9432   39.5750 H   0  0  0  0  0  0  0  0  0  0  0  0
   18.9599   12.3640   38.8941 H   0  0  0  0  0  0  0  0  0  0  0  0
   20.0649   13.6474   41.1680 H   0  0  0  0  0  0  0  0  0  0  0  0
   19.9013   15.1523   39.3628 H   0  0  0  0  0  0  0  0  0  0  0  0
   17.3118   14.0994   38.7857 H   0  0  0  0  0  0  0  0  0  0  0  0
   18.7924   13.7441   36.9869 H   0  0  0  0  0  0  0  0  0  0  0  0
   19.7039   16.5495   37.3254 H   0  0  0  0  0  0  0  0  0  0  0  0
   18.1145   16.0764   37.1690 H   0  0  0  0  0  0  0  0  0  0  0  0
  1  2  1  0  0  0  0
  1 23  1  0  0  0  0
  2  3  1  0  0  0  0
  2 10  1  0  0  0  0
  2 24  1  1  0  0  0
  3  4  1  0  0  0  0
  3  5  1  0  0  0  0
  3 25  1  6  0  0  0
  4 26  1  0  0  0  0
  5  6  1  0  0  0  0
  5  7  1  0  0  0  0
  5 27  1  1  0  0  0
  6 28  1  0  0  0  0
  6 29  1  0  0  0  0
  7  8  1  0  0  0  0
  7 30  1  0  0  0  0
  7 31  1  0  0  0  0
  8  9  1  0  0  0  0
  8 10  1  0  0  0  0
  8 32  1  1  0  0  0
  9 33  1  0  0  0  0
  9 34  1  0  0  0  0
 10 11  1  0  0  0  0
 10 35  1  6  0  0  0
 11 12  1  0  0  0  0
 12 13  1  0  0  0  0
 12 21  1  0  0  0  0
 12 36  1  6  0  0  0
 13 14  1  0  0  0  0
 14 15  1  0  0  0  0
 14 17  1  0  0  0  0
 14 37  1  1  0  0  0
 15 16  1  0  0  0  0
 15 38  1  0  0  0  0
 15 39  1  0  0  0  0
 16 40  1  0  0  0  0
 16 41  1  0  0  0  0
 17 18  1  0  0  0  0
 17 19  1  0  0  0  0
 17 42  1  6  0  0  0
 18 43  1  0  0  0  0
 19 20  1  0  0  0  0
 19 21  1  0  0  0  0
 19 44  1  1  0  0  0
 20 45  1  0  0  0  0
 21 22  1  0  0  0  0
 21 46  1  6  0  0  0
 22 47  1  0  0  0  0
 22 48  1  0  0  0  0
M  END
$$$$
