2ET8_XXX_B_51
 OpenBabel10091713573D
Coordinates from PDB:2ET8:B:51 Model:1 without hydrogens
 22 23  0  0  0  0  0  0  0  0999 V2000
   21.7370   15.4650   34.7710 O   0  0  0  0  0  0  0  0  0  0  0  0
   22.6440   16.1750   35.6500 C   0  0  2  0  0  0  0  0  0  0  0  0
   23.9610   16.5350   34.8620 C   0  0  1  0  0  0  0  0  0  0  0  0
   23.6850   17.3530   33.7180 O   0  0  0  0  0  0  0  0  0  0  0  0
   24.9210   17.2890   35.7490 C   0  0  2  0  0  0  0  0  0  0  0  0
   26.1700   17.6170   34.9800 N   0  0  0  0  0  0  0  0  0  0  0  0
   25.2540   16.4250   36.9870 C   0  0  0  0  0  0  0  0  0  0  0  0
   23.9240   16.1170   37.7350 C   0  0  2  0  0  0  0  0  0  0  0  0
   24.3210   15.2770   38.9440 N   0  0  0  0  0  0  0  0  0  0  0  0
   23.0240   15.2680   36.8870 C   0  0  1  0  0  0  0  0  0  0  0  0
   21.8550   14.9810   37.5480 O   0  0  0  0  0  0  0  0  0  0  0  0
   20.8930   14.1570   36.9760 C   0  0  1  0  0  0  0  0  0  0  0  0
   21.1980   12.7740   37.5500 O   0  0  0  0  0  0  0  0  0  0  0  0
   21.0300   12.7040   39.0340 C   0  0  2  0  0  0  0  0  0  0  0  0
   21.3240   11.2790   39.5470 C   0  0  0  0  0  0  0  0  0  0  0  0
   22.7210   10.8830   39.2210 N   0  0  0  0  0  0  0  0  0  0  0  0
   19.6140   13.0610   39.3750 C   0  0  1  0  0  0  0  0  0  0  0  0
   19.4640   13.0090   40.7530 O   0  0  0  0  0  0  0  0  0  0  0  0
   19.2620   14.4370   38.8890 C   0  0  2  0  0  0  0  0  0  0  0  0
   17.8980   14.7440   39.2120 O   0  0  0  0  0  0  0  0  0  0  0  0
   19.4370   14.4860   37.4100 C   0  0  1  0  0  0  0  0  0  0  0  0
   19.0770   15.8610   36.9090 N   0  0  0  0  0  0  0  0  0  0  0  0
  2  1  1  6  0  0  0
  2  3  1  0  0  0  0
  2 10  1  0  0  0  0
  3  4  1  6  0  0  0
  3  5  1  0  0  0  0
  5  6  1  6  0  0  0
  5  7  1  0  0  0  0
  7  8  1  0  0  0  0
  8  9  1  1  0  0  0
  8 10  1  0  0  0  0
 10 11  1  1  0  0  0
 12 11  1  1  0  0  0
 12 13  1  0  0  0  0
 12 21  1  0  0  0  0
 13 14  1  0  0  0  0
 14 15  1  6  0  0  0
 14 17  1  0  0  0  0
 15 16  1  0  0  0  0
 17 18  1  1  0  0  0
 17 19  1  0  0  0  0
 19 20  1  6  0  0  0
 19 21  1  0  0  0  0
 21 22  1  1  0  0  0
A    1
O3
A    2
C4
A    3
C5
A    4
O4
A    5
C6
A    6
N1
A    7
C7
A    8
C8
A    9
N2
A   10
C9
A   11
O5
A   12
C10
A   13
O6
A   14
C11
A   15
C12
A   16
N3
A   17
C13
A   18
O7
A   19
C14
A   20
O8
A   21
C15
A   22
N4
M  END
>  <InstanceId>
2ET8_XXX_B_51

>  <ChemCompId>
XXX

>  <PdbId>
2ET8

>  <ChainId>
B

>  <ResidueNumber>
51

>  <InsertionCode>


>  <Model>
1

>  <AltIds>


>  <MissingHeavyAtoms>
0

>  <ObservedFormula>
C12 N4 O6

>  <Name>
(2R,3S,4R,5R,6R)-6-((1R,2R,3S,4R,6S)-4,6-DIAMINO-2,3-DIHYDROXYCYCLOHEXYLOXY)-5-AMINO-2-(AMINOMETHYL)-TETRAHYDRO-2H-PYRAN-3,4-DIOL

>  <SystematicName>
(2R,3S,4R,5R,6R)-5-amino-2-(aminomethyl)-6-[(1R,2R,3S,4R,6S)-4,6-diamino-2,3-dihydroxy-cyclohexyl]oxy-oxane-3,4-diol

>  <Synonyms>
NEOMYCIN A, NEAMINE

>  <Type>
NON-POLYMER

>  <Formula>
C12 H26 N4 O6

>  <MolecularWeight>
322.358

>  <ModifiedDate>
2011-06-04

>  <Parent>


>  <OneLetterCode>


>  <SubcomponentList>


>  <AmbiguousFlag>
N

>  <InChI>
InChI=1S/C12H26N4O6/c13-2-5-8(18)9(19)6(16)12(21-5)22-11-4(15)1-3(14)7(17)10(11)20/h3-12,17-20H,1-2,13-16H2/t3-,4+,5-,6-,7+,8-,9-,10-,11-,12-/m1/s1

>  <InChIKey>
SYJXFKPQNSDJLI-HKEUSBCWSA-N

>  <SMILES>
C1[C@H]([C@@H]([C@H]([C@@H]([C@H]1N)O[C@@H]2[C@@H]([C@H]([C@@H]([C@H](O2)CN)O)O)N)O)O)N

$$$$
