@<TRIPOS>MOLECULE
2ET8_XXX_B_51
 22 23 0 0 0
SMALL
GASTEIGER
****
Coordinates from PDB:2ET8:B:51 Model:1 without hydrogens
@<TRIPOS>ATOM
      1 O          21.7370   15.4650   34.7710 O.3     1  UNL1       -0.2177
      2 C          22.6440   16.1750   35.6500 C.3     1  UNL1        0.2119
      3 C          23.9610   16.5350   34.8620 C.3     1  UNL1        0.2020
      4 O          23.6850   17.3530   33.7180 O.3     1  UNL1       -0.2188
      5 C          24.9210   17.2890   35.7490 C.3     1  UNL1        0.1262
      6 N          26.1700   17.6170   34.9800 N.3     1  UNL1       -0.1301
      7 C          25.2540   16.4250   36.9870 C.3     1  UNL1        0.0433
      8 C          23.9240   16.1170   37.7350 C.3     1  UNL1        0.1231
      9 N          24.3210   15.2770   38.9440 N.3     1  UNL1       -0.1302
     10 C          23.0240   15.2680   36.8870 C.3     1  UNL1        0.1681
     11 O          21.8550   14.9810   37.5480 O.3     1  UNL1       -0.3277
     12 C          20.8930   14.1570   36.9760 C.3     1  UNL1        0.2561
     13 O          21.1980   12.7740   37.5500 O.3     1  UNL1       -0.3276
     14 C          21.0300   12.7040   39.0340 C.3     1  UNL1        0.1696
     15 C          21.3240   11.2790   39.5470 C.3     1  UNL1        0.1415
     16 N          22.7210   10.8830   39.2210 N.3     1  UNL1       -0.1286
     17 C          19.6140   13.0610   39.3750 C.3     1  UNL1        0.2122
     18 O          19.4640   13.0090   40.7530 O.3     1  UNL1       -0.2177
     19 C          19.2620   14.4370   38.8890 C.3     1  UNL1        0.2070
     20 O          17.8980   14.7440   39.2120 O.3     1  UNL1       -0.2186
     21 C          19.4370   14.4860   37.4100 C.3     1  UNL1        0.1807
     22 N          19.0770   15.8610   36.9090 N.3     1  UNL1       -0.1248
@<TRIPOS>BOND
     1     2     1    1
     2     2     3    1
     3     2    10    1
     4     3     4    1
     5     3     5    1
     6     5     6    1
     7     5     7    1
     8     7     8    1
     9     8     9    1
    10     8    10    1
    11    10    11    1
    12    12    11    1
    13    12    13    1
    14    12    21    1
    15    13    14    1
    16    14    15    1
    17    14    17    1
    18    15    16    1
    19    17    18    1
    20    17    19    1
    21    19    20    1
    22    19    21    1
    23    21    22    1
