@<TRIPOS>MOLECULE
3FO6_6GO_A_91
 19 20 0 0 0
SMALL
GASTEIGER

@<TRIPOS>ATOM
      1 C           1.4386   -2.3056   -0.1732 C.3     1  UNL1        0.0805
      2 O           0.5646   -1.6760   -1.1096 O.3     1  UNL1       -0.4781
      3 C           0.3290   -0.3861   -0.6999 C.ar    1  UNL1        0.2453
      4 N           1.3780    0.4279   -0.4212 N.ar    1  UNL1       -0.1778
      5 C           1.1311    1.6471    0.0971 C.ar    1  UNL1        0.2177
      6 N          -0.0810    2.0997    0.4852 N.ar    1  UNL1       -0.1932
      7 C          -1.0957    1.2306    0.2932 C.ar    1  UNL1        0.1862
      8 C          -0.9060   -0.0381   -0.2092 C.ar    1  UNL1        0.1475
      9 N          -2.1497   -0.5955   -0.2703 N.ar    1  UNL1       -0.3389
     10 H          -2.3710   -1.5204   -0.6150 H       1  UNL1        0.1670
     11 C          -3.0228    0.3137    0.2526 C.ar    1  UNL1        0.0963
     12 N          -2.4130    1.4238    0.6166 N.ar    1  UNL1       -0.2163
     13 N           2.2262    2.4968    0.2767 N.pl3   1  UNL1       -0.3273
     14 H           1.6443   -1.7081    0.7307 H       1  UNL1        0.0660
     15 H           2.3794   -2.5286   -0.6863 H       1  UNL1        0.0660
     16 H           0.9851   -3.2435    0.1530 H       1  UNL1        0.0660
     17 H          -4.0784    0.1035    0.3382 H       1  UNL1        0.1027
     18 H           2.9060    2.0356    0.8736 H       1  UNL1        0.1452
     19 H           1.9276    3.3683    0.6997 H       1  UNL1        0.1452
@<TRIPOS>BOND
     1     2     1    1
     2     3     2    1
     3     4     3   ar
     4     5     4   ar
     5     6     5   ar
     6     7     6   ar
     7     8     7   ar
     8     8     3   ar
     9     9     8   ar
    10     9    10    1
    11    11     9   ar
    12    12    11   ar
    13    12     7   ar
    14    13     5    1
    15     1    14    1
    16     1    15    1
    17     1    16    1
    18    11    17    1
    19    13    18    1
    20    13    19    1
