REMARK  2 active torsions:
REMARK  status: ('A' for Active; 'I' for Inactive)
REMARK    1  A    between atoms: C_3  and  O_2 
REMARK    2  A    between atoms: N_13  and  C_5 
ROOT
ATOM      1  C   UNL d   1       0.329  -0.386  -0.700  0.00  0.00     0.198 C 
ATOM      2  N   UNL d   1       1.378   0.428  -0.421  0.00  0.00    -0.192 NA
ATOM      3  C   UNL d   1       1.131   1.647   0.097  0.00  0.00     0.203 C 
ATOM      4  N   UNL d   1      -0.081   2.100   0.485  0.00  0.00    -0.196 NA
ATOM      5  C   UNL d   1      -1.096   1.231   0.293  0.00  0.00     0.185 A 
ATOM      6  C   UNL d   1      -0.906  -0.038  -0.209  0.00  0.00     0.135 A 
ATOM      7  N   UNL d   1      -2.150  -0.596  -0.270  0.00  0.00    -0.344 N 
ATOM      8  H   UNL d   1      -2.371  -1.520  -0.615  0.00  0.00     0.167 HD
ATOM      9  C   UNL d   1      -3.023   0.314   0.253  0.00  0.00     0.210 A 
ATOM     10  N   UNL d   1      -2.413   1.424   0.617  0.00  0.00    -0.222 NA
ENDROOT
BRANCH   3  11
ATOM     11  N   UNL d   1       2.226   2.497   0.277  0.00  0.00    -0.270 NA
ATOM     12  H   UNL d   1       2.906   2.036   0.874  0.00  0.00     0.127 HD
ATOM     13  H   UNL d   1       1.928   3.368   0.700  0.00  0.00     0.127 HD
ENDBRANCH   3  11
BRANCH   1  14
ATOM     14  O   UNL d   1       0.565  -1.676  -1.110  0.00  0.00    -0.338 OA
ATOM     15  C   UNL d   1       1.439  -2.306  -0.173  0.00  0.00     0.211 C 
ENDBRANCH   1  14
TORSDOF 2
