3FO6_6GO_A_91
  1228              3D

 19 20  0  0  0  0  0  0  0  0999 V2000
    1.4386   -2.3056   -0.1732 C   0  0  0  0  0  0  0  0  0  0  0  0
    0.5646   -1.6760   -1.1096 O   0  0  0  0  0  0  0  0  0  0  0  0
    0.3290   -0.3861   -0.6999 C   0  0  0  0  0  0  0  0  0  0  0  0
    1.3780    0.4279   -0.4212 N   0  0  0  0  0  0  0  0  0  0  0  0
    1.1311    1.6471    0.0971 C   0  0  0  0  0  0  0  0  0  0  0  0
   -0.0810    2.0997    0.4852 N   0  0  0  0  0  0  0  0  0  0  0  0
   -1.0957    1.2306    0.2932 C   0  0  0  0  0  0  0  0  0  0  0  0
   -0.9060   -0.0381   -0.2092 C   0  0  0  0  0  0  0  0  0  0  0  0
   -2.1497   -0.5955   -0.2703 N   0  0  0  0  0  0  0  0  0  0  0  0
   -2.3710   -1.5204   -0.6150 H   0  0  0  0  0  0  0  0  0  0  0  0
   -3.0228    0.3137    0.2526 C   0  0  0  0  0  0  0  0  0  0  0  0
   -2.4130    1.4238    0.6166 N   0  0  0  0  0  0  0  0  0  0  0  0
    2.2262    2.4968    0.2767 N   0  0  0  0  0  0  0  0  0  0  0  0
    1.6443   -1.7081    0.7307 H   0  0  0  0  0  0  0  0  0  0  0  0
    2.3794   -2.5286   -0.6863 H   0  0  0  0  0  0  0  0  0  0  0  0
    0.9851   -3.2435    0.1530 H   0  0  0  0  0  0  0  0  0  0  0  0
   -4.0784    0.1035    0.3382 H   0  0  0  0  0  0  0  0  0  0  0  0
    2.9060    2.0356    0.8736 H   0  0  0  0  0  0  0  0  0  0  0  0
    1.9276    3.3683    0.6997 H   0  0  0  0  0  0  0  0  0  0  0  0
  2  1  1  0  0  0  0
  3  2  1  0  0  0  0
  4  3  2  0  0  0  0
  5  4  1  0  0  0  0
  6  5  2  0  0  0  0
  7  6  1  0  0  0  0
  8  7  2  0  0  0  0
  8  3  1  0  0  0  0
  9  8  1  0  0  0  0
  9 10  1  0  0  0  0
 11  9  1  0  0  0  0
 12 11  2  0  0  0  0
 12  7  1  0  0  0  0
 13  5  1  0  0  0  0
  1 14  1  0  0  0  0
  1 15  1  0  0  0  0
  1 16  1  0  0  0  0
 11 17  1  0  0  0  0
 13 18  1  0  0  0  0
 13 19  1  0  0  0  0
M  END
>  <energy>
38.69776558548444

$$$$
