@<TRIPOS>MOLECULE
ligands/ligand.pdb
 69 71 0 0 0
SMALL
GASTEIGER

@<TRIPOS>ATOM
      1 C           3.7586    0.1500    2.4545 C.3     1  UNL1        0.1874
      2 H           3.5484   -0.9103    2.6128 H       1  UNL1        0.0937
      3 C           5.0929    0.4794    3.1443 C.3     1  UNL1        0.1234
      4 H           5.0037    0.3025    4.2244 H       1  UNL1        0.0660
      5 C           6.2452   -0.3255    2.5213 C.3     1  UNL1        0.0647
      6 H           7.1942    0.1120    2.8604 H       1  UNL1        0.0512
      7 C           6.1985   -0.2866    0.9819 C.3     1  UNL1        0.1012
      8 H           6.8609   -1.0542    0.5624 H       1  UNL1        0.0636
      9 C           4.7926   -0.3998    0.3656 C.3     1  UNL1        0.1120
     10 H           4.8385    0.0322   -0.6392 H       1  UNL1        0.0646
     11 C           4.2505   -1.8207    0.2208 C.3     1  UNL1        0.0730
     12 O           4.9823   -2.5085   -0.7864 O.3     1  UNL1       -0.3924
     13 O           3.8610    0.4387    1.0626 O.3     1  UNL1       -0.3406
     14 O           6.7475    0.9809    0.5797 O.3     1  UNL1       -0.3875
     15 N           6.2074   -1.7034    3.0091 N.3     1  UNL1       -0.3229
     16 O           5.3685    1.8738    2.9802 O.3     1  UNL1       -0.3851
     17 O           2.7493    0.9248    3.1050 O.3     1  UNL1       -0.3413
     18 C           1.3656    0.6431    2.8282 C.3     1  UNL1        0.1051
     19 H           0.8487    0.9941    3.7322 H       1  UNL1        0.0639
     20 C           0.8848    1.4675    1.6206 C.3     1  UNL1        0.0355
     21 H           1.6260    1.4176    0.8202 H       1  UNL1        0.0485
     22 C          -0.4760    1.0094    1.0538 C.3     1  UNL1       -0.0175
     23 C          -1.2969    0.0972    1.9747 C.3     1  UNL1        0.0355
     24 H          -2.1506   -0.2725    1.3922 H       1  UNL1        0.0485
     25 C          -0.4699   -1.1005    2.4699 C.3     1  UNL1        0.1051
     26 H          -0.8971   -1.4866    3.4041 H       1  UNL1        0.0639
     27 O          -0.5622   -2.1055    1.4487 O.3     1  UNL1       -0.3423
     28 C          -1.2130   -3.3093    1.8578 C.3     1  UNL1        0.1752
     29 H          -0.6005   -3.7527    2.6430 H       1  UNL1        0.0926
     30 C          -1.2313   -4.2404    0.6329 C.3     1  UNL1        0.0590
     31 H          -0.2040   -4.5715    0.4511 H       1  UNL1        0.0509
     32 C          -2.1258   -5.4681    0.8419 C.3     1  UNL1       -0.0044
     33 C          -3.4621   -5.1272    1.4965 C.3     1  UNL1        0.0842
     34 H          -4.0115   -6.0425    1.7534 H       1  UNL1        0.0620
     35 C          -3.2779   -4.2368    2.7401 C.3     1  UNL1        0.0998
     36 H          -4.2706   -3.8539    3.0182 H       1  UNL1        0.0635
     37 C          -2.7144   -4.8662    4.0352 C.3     1  UNL1        0.0221
     38 N          -2.7650   -6.3209    4.1016 N.3     1  UNL1       -0.3276
     39 O          -2.5321   -3.0589    2.3671 O.3     1  UNL1       -0.3427
     40 O          -4.2840   -4.4465    0.5370 O.3     1  UNL1       -0.3891
     41 N          -1.6452   -3.5069   -0.5747 N.3     1  UNL1       -0.3231
     42 C           1.0273   -0.8368    2.6471 C.3     1  UNL1        0.1104
     43 H           1.5509   -1.2366    1.7736 H       1  UNL1        0.0646
     44 O           1.4594   -1.5850    3.7849 O.3     1  UNL1       -0.3865
     45 N          -1.8769    0.8800    3.0684 N.3     1  UNL1       -0.3250
     46 N           0.8026    2.8775    2.0224 N.3     1  UNL1       -0.3250
     47 H           3.1978   -1.8075   -0.0700 H       1  UNL1        0.0584
     48 H           4.3393   -2.3998    1.1412 H       1  UNL1        0.0584
     49 H           4.3789   -2.6704   -1.5332 H       1  UNL1        0.2095
     50 H           7.6806    0.8279    0.3475 H       1  UNL1        0.2100
     51 H           7.1091   -2.1454    2.8371 H       1  UNL1        0.1186
     52 H           6.0890   -1.7150    4.0213 H       1  UNL1        0.1186
     53 H           4.7610    2.3679    3.5620 H       1  UNL1        0.2101
     54 H          -0.2760    0.4613    0.1250 H       1  UNL1        0.0297
     55 H          -1.0762    1.8726    0.7367 H       1  UNL1        0.0297
     56 H          -2.2984   -5.9956   -0.0981 H       1  UNL1        0.0308
     57 H          -1.5951   -6.1750    1.4853 H       1  UNL1        0.0308
     58 H          -1.6924   -4.5485    4.2410 H       1  UNL1        0.0448
     59 H          -3.3079   -4.4893    4.8823 H       1  UNL1        0.0448
     60 H          -3.0151   -6.6123    5.0459 H       1  UNL1        0.1183
     61 H          -1.8407   -6.7133    3.9319 H       1  UNL1        0.1183
     62 H          -4.3242   -3.5031    0.7759 H       1  UNL1        0.2099
     63 H          -2.6140   -3.2038   -0.4861 H       1  UNL1        0.1186
     64 H          -1.6175   -4.1154   -1.3928 H       1  UNL1        0.1186
     65 H           1.7796   -2.4534    3.4805 H       1  UNL1        0.2100
     66 H          -2.7450    0.4373    3.3715 H       1  UNL1        0.1185
     67 H          -1.2680    0.8602    3.8858 H       1  UNL1        0.1185
     68 H           1.7473    3.2447    2.1496 H       1  UNL1        0.1185
     69 H           0.4019    3.4320    1.2627 H       1  UNL1        0.1185
@<TRIPOS>BOND
     1     1     2    1
     2     3     1    1
     3     3     4    1
     4     5     3    1
     5     5     6    1
     6     7     5    1
     7     7     8    1
     8     9     7    1
     9     9    10    1
    10    11     9    1
    11    12    11    1
    12    13     9    1
    13    13     1    1
    14    14     7    1
    15    15     5    1
    16    16     3    1
    17    17     1    1
    18    18    17    1
    19    18    19    1
    20    20    18    1
    21    20    21    1
    22    22    20    1
    23    23    22    1
    24    23    24    1
    25    25    23    1
    26    25    26    1
    27    27    25    1
    28    28    27    1
    29    28    29    1
    30    30    28    1
    31    30    31    1
    32    32    30    1
    33    33    32    1
    34    33    34    1
    35    35    33    1
    36    35    36    1
    37    37    35    1
    38    38    37    1
    39    39    35    1
    40    39    28    1
    41    40    33    1
    42    41    30    1
    43    42    25    1
    44    42    43    1
    45    42    18    1
    46    44    42    1
    47    45    23    1
    48    46    20    1
    49    11    47    1
    50    11    48    1
    51    12    49    1
    52    14    50    1
    53    15    51    1
    54    15    52    1
    55    16    53    1
    56    22    54    1
    57    22    55    1
    58    32    56    1
    59    32    57    1
    60    37    58    1
    61    37    59    1
    62    38    60    1
    63    38    61    1
    64    40    62    1
    65    41    63    1
    66    41    64    1
    67    44    65    1
    68    45    66    1
    69    45    67    1
    70    46    68    1
    71    46    69    1
