REMARK  16 active torsions:
REMARK  status: ('A' for Active; 'I' for Inactive)
REMARK    1  A    between atoms: O_12  and  C_1 
REMARK    2  A    between atoms: O_11  and  C_2 
REMARK    3  A    between atoms: N_10  and  C_3 
REMARK    4  A    between atoms: O_9  and  C_4 
REMARK    5  A    between atoms: C_6  and  C_5 
REMARK    6  A    between atoms: O_7  and  C_6 
REMARK    7  A    between atoms: C_13  and  O_12 
REMARK    8  A    between atoms: N_32  and  C_14 
REMARK    9  A    between atoms: N_31  and  C_16 
REMARK   10  A    between atoms: O_18  and  C_17 
REMARK   11  A    between atoms: C_19  and  O_18 
REMARK   12  A    between atoms: N_28  and  C_20 
REMARK   13  A    between atoms: O_27  and  C_22 
REMARK   14  A    between atoms: C_24  and  C_23 
REMARK   15  A    between atoms: N_25  and  C_24 
REMARK   16  A    between atoms: O_30  and  C_29 
ROOT
ATOM      1  C   UNL d   1       1.366   0.643   2.828  0.00  0.00     0.189 C 
ATOM      2  C   UNL d   1       0.885   1.468   1.621  0.00  0.00     0.251 C 
ATOM      3  C   UNL d   1      -0.476   1.009   1.054  0.00  0.00     0.076 C 
ATOM      4  C   UNL d   1      -1.297   0.097   1.975  0.00  0.00     0.251 C 
ATOM      5  C   UNL d   1      -0.470  -1.101   2.470  0.00  0.00     0.189 C 
ATOM      6  C   UNL d   1       1.027  -0.837   2.647  0.00  0.00     0.180 C 
ENDROOT
BRANCH   1   7
ATOM      7  O   UNL d   1       2.749   0.925   3.105  0.00  0.00    -0.348 OA
BRANCH   7   8
ATOM      8  C   UNL d   1       3.759   0.150   2.454  0.00  0.00     0.291 C 
ATOM      9  C   UNL d   1       5.093   0.479   3.144  0.00  0.00     0.208 C 
ATOM     10  C   UNL d   1       6.245  -0.326   2.521  0.00  0.00     0.282 C 
ATOM     11  C   UNL d   1       6.199  -0.287   0.982  0.00  0.00     0.184 C 
ATOM     12  C   UNL d   1       4.793  -0.400   0.366  0.00  0.00     0.179 C 
ATOM     13  O   UNL d   1       3.861   0.439   1.063  0.00  0.00    -0.349 OA
BRANCH   9  14
ATOM     14  O   UNL d   1       5.369   1.874   2.980  0.00  0.00    -0.388 OA
ATOM     15  H   UNL d   1       4.761   2.368   3.562  0.00  0.00     0.210 HD
ENDBRANCH   9  14
BRANCH  10  16
ATOM     16  N   UNL d   1       6.207  -1.703   3.009  0.00  0.00     0.088 N 
ATOM     17  H   UNL d   1       7.109  -2.145   2.837  0.00  0.00     0.313 HD
ATOM     18  H   UNL d   1       6.089  -1.715   4.021  0.00  0.00     0.313 HD
ENDBRANCH  10  16
BRANCH  11  19
ATOM     19  O   UNL d   1       6.747   0.981   0.580  0.00  0.00    -0.391 OA
ATOM     20  H   UNL d   1       7.681   0.828   0.347  0.00  0.00     0.210 HD
ENDBRANCH  11  19
BRANCH  12  21
ATOM     21  C   UNL d   1       4.250  -1.821   0.221  0.00  0.00     0.198 C 
BRANCH  21  22
ATOM     22  O   UNL d   1       4.982  -2.509  -0.786  0.00  0.00    -0.398 OA
ATOM     23  H   UNL d   1       4.379  -2.670  -1.533  0.00  0.00     0.209 HD
ENDBRANCH  21  22
ENDBRANCH  12  21
ENDBRANCH   7   8
ENDBRANCH   1   7
BRANCH   2  24
ATOM     24  N   UNL d   1       0.803   2.877   2.022  0.00  0.00     0.085 N 
ATOM     25  H   UNL d   1       1.747   3.245   2.150  0.00  0.00     0.313 HD
ATOM     26  H   UNL d   1       0.402   3.432   1.263  0.00  0.00     0.313 HD
ENDBRANCH   2  24
BRANCH   6  27
ATOM     27  O   UNL d   1       1.459  -1.585   3.785  0.00  0.00    -0.390 OA
ATOM     28  H   UNL d   1       1.780  -2.453   3.481  0.00  0.00     0.210 HD
ENDBRANCH   6  27
BRANCH   5  29
ATOM     29  O   UNL d   1      -0.562  -2.106   1.449  0.00  0.00    -0.349 OA
BRANCH  29  30
ATOM     30  C   UNL d   1      -1.213  -3.309   1.858  0.00  0.00     0.293 C 
ATOM     31  C   UNL d   1      -1.231  -4.240   0.633  0.00  0.00     0.275 C 
ATOM     32  C   UNL d   1      -2.126  -5.468   0.842  0.00  0.00     0.074 C 
ATOM     33  C   UNL d   1      -3.462  -5.127   1.496  0.00  0.00     0.151 C 
ATOM     34  C   UNL d   1      -3.278  -4.237   2.740  0.00  0.00     0.181 C 
ATOM     35  O   UNL d   1      -2.532  -3.059   2.367  0.00  0.00    -0.349 OA
BRANCH  31  36
ATOM     36  N   UNL d   1      -1.645  -3.507  -0.575  0.00  0.00     0.087 N 
ATOM     37  H   UNL d   1      -2.614  -3.204  -0.486  0.00  0.00     0.313 HD
ATOM     38  H   UNL d   1      -1.617  -4.115  -1.393  0.00  0.00     0.313 HD
ENDBRANCH  31  36
BRANCH  33  39
ATOM     39  O   UNL d   1      -4.284  -4.447   0.537  0.00  0.00    -0.393 OA
ATOM     40  H   UNL d   1      -4.324  -3.503   0.776  0.00  0.00     0.210 HD
ENDBRANCH  33  39
BRANCH  34  41
ATOM     41  C   UNL d   1      -2.714  -4.866   4.035  0.00  0.00     0.301 C 
BRANCH  41  42
ATOM     42  N   UNL d   1      -2.765  -6.321   4.102  0.00  0.00     0.080 N 
ATOM     43  H   UNL d   1      -3.015  -6.612   5.046  0.00  0.00     0.312 HD
ATOM     44  H   UNL d   1      -1.841  -6.713   3.932  0.00  0.00     0.312 HD
ENDBRANCH  41  42
ENDBRANCH  34  41
ENDBRANCH  29  30
ENDBRANCH   5  29
BRANCH   4  45
ATOM     45  N   UNL d   1      -1.877   0.880   3.068  0.00  0.00     0.085 N 
ATOM     46  H   UNL d   1      -2.745   0.437   3.372  0.00  0.00     0.313 HD
ATOM     47  H   UNL d   1      -1.268   0.860   3.886  0.00  0.00     0.313 HD
ENDBRANCH   4  45
TORSDOF 16
