ligands/ligand.pdb
  1228              3D

 69 71  0  0  0  0  0  0  0  0999 V2000
    3.7586    0.1500    2.4545 C   0  0  0  0  0  0  0  0  0  0  0  0
    3.5484   -0.9103    2.6128 H   0  0  0  0  0  0  0  0  0  0  0  0
    5.0929    0.4794    3.1443 C   0  0  0  0  0  0  0  0  0  0  0  0
    5.0037    0.3025    4.2244 H   0  0  0  0  0  0  0  0  0  0  0  0
    6.2452   -0.3255    2.5213 C   0  0  0  0  0  0  0  0  0  0  0  0
    7.1942    0.1120    2.8604 H   0  0  0  0  0  0  0  0  0  0  0  0
    6.1985   -0.2866    0.9819 C   0  0  0  0  0  0  0  0  0  0  0  0
    6.8609   -1.0542    0.5624 H   0  0  0  0  0  0  0  0  0  0  0  0
    4.7926   -0.3998    0.3656 C   0  0  0  0  0  0  0  0  0  0  0  0
    4.8385    0.0322   -0.6392 H   0  0  0  0  0  0  0  0  0  0  0  0
    4.2505   -1.8207    0.2208 C   0  0  0  0  0  0  0  0  0  0  0  0
    4.9823   -2.5085   -0.7864 O   0  0  0  0  0  0  0  0  0  0  0  0
    3.8610    0.4387    1.0626 O   0  0  0  0  0  0  0  0  0  0  0  0
    6.7475    0.9809    0.5797 O   0  0  0  0  0  0  0  0  0  0  0  0
    6.2074   -1.7034    3.0091 N   0  0  0  0  0  0  0  0  0  0  0  0
    5.3685    1.8738    2.9802 O   0  0  0  0  0  0  0  0  0  0  0  0
    2.7493    0.9248    3.1050 O   0  0  0  0  0  0  0  0  0  0  0  0
    1.3656    0.6431    2.8282 C   0  0  0  0  0  0  0  0  0  0  0  0
    0.8487    0.9941    3.7322 H   0  0  0  0  0  0  0  0  0  0  0  0
    0.8848    1.4675    1.6206 C   0  0  0  0  0  0  0  0  0  0  0  0
    1.6260    1.4176    0.8202 H   0  0  0  0  0  0  0  0  0  0  0  0
   -0.4760    1.0094    1.0538 C   0  0  0  0  0  0  0  0  0  0  0  0
   -1.2969    0.0972    1.9747 C   0  0  0  0  0  0  0  0  0  0  0  0
   -2.1506   -0.2725    1.3922 H   0  0  0  0  0  0  0  0  0  0  0  0
   -0.4699   -1.1005    2.4699 C   0  0  0  0  0  0  0  0  0  0  0  0
   -0.8971   -1.4866    3.4041 H   0  0  0  0  0  0  0  0  0  0  0  0
   -0.5622   -2.1055    1.4487 O   0  0  0  0  0  0  0  0  0  0  0  0
   -1.2130   -3.3093    1.8578 C   0  0  0  0  0  0  0  0  0  0  0  0
   -0.6005   -3.7527    2.6430 H   0  0  0  0  0  0  0  0  0  0  0  0
   -1.2313   -4.2404    0.6329 C   0  0  0  0  0  0  0  0  0  0  0  0
   -0.2040   -4.5715    0.4511 H   0  0  0  0  0  0  0  0  0  0  0  0
   -2.1258   -5.4681    0.8419 C   0  0  0  0  0  0  0  0  0  0  0  0
   -3.4621   -5.1272    1.4965 C   0  0  0  0  0  0  0  0  0  0  0  0
   -4.0115   -6.0425    1.7534 H   0  0  0  0  0  0  0  0  0  0  0  0
   -3.2779   -4.2368    2.7401 C   0  0  0  0  0  0  0  0  0  0  0  0
   -4.2706   -3.8539    3.0182 H   0  0  0  0  0  0  0  0  0  0  0  0
   -2.7144   -4.8662    4.0352 C   0  0  0  0  0  0  0  0  0  0  0  0
   -2.7650   -6.3209    4.1016 N   0  0  0  0  0  0  0  0  0  0  0  0
   -2.5321   -3.0589    2.3671 O   0  0  0  0  0  0  0  0  0  0  0  0
   -4.2840   -4.4465    0.5370 O   0  0  0  0  0  0  0  0  0  0  0  0
   -1.6452   -3.5069   -0.5747 N   0  0  0  0  0  0  0  0  0  0  0  0
    1.0273   -0.8368    2.6471 C   0  0  0  0  0  0  0  0  0  0  0  0
    1.5509   -1.2366    1.7736 H   0  0  0  0  0  0  0  0  0  0  0  0
    1.4594   -1.5850    3.7849 O   0  0  0  0  0  0  0  0  0  0  0  0
   -1.8769    0.8800    3.0684 N   0  0  0  0  0  0  0  0  0  0  0  0
    0.8026    2.8775    2.0224 N   0  0  0  0  0  0  0  0  0  0  0  0
    3.1978   -1.8075   -0.0700 H   0  0  0  0  0  0  0  0  0  0  0  0
    4.3393   -2.3998    1.1412 H   0  0  0  0  0  0  0  0  0  0  0  0
    4.3789   -2.6704   -1.5332 H   0  0  0  0  0  0  0  0  0  0  0  0
    7.6806    0.8279    0.3475 H   0  0  0  0  0  0  0  0  0  0  0  0
    7.1091   -2.1454    2.8371 H   0  0  0  0  0  0  0  0  0  0  0  0
    6.0890   -1.7150    4.0213 H   0  0  0  0  0  0  0  0  0  0  0  0
    4.7610    2.3679    3.5620 H   0  0  0  0  0  0  0  0  0  0  0  0
   -0.2760    0.4613    0.1250 H   0  0  0  0  0  0  0  0  0  0  0  0
   -1.0762    1.8726    0.7367 H   0  0  0  0  0  0  0  0  0  0  0  0
   -2.2984   -5.9956   -0.0981 H   0  0  0  0  0  0  0  0  0  0  0  0
   -1.5951   -6.1750    1.4853 H   0  0  0  0  0  0  0  0  0  0  0  0
   -1.6924   -4.5485    4.2410 H   0  0  0  0  0  0  0  0  0  0  0  0
   -3.3079   -4.4893    4.8823 H   0  0  0  0  0  0  0  0  0  0  0  0
   -3.0151   -6.6123    5.0459 H   0  0  0  0  0  0  0  0  0  0  0  0
   -1.8407   -6.7133    3.9319 H   0  0  0  0  0  0  0  0  0  0  0  0
   -4.3242   -3.5031    0.7759 H   0  0  0  0  0  0  0  0  0  0  0  0
   -2.6140   -3.2038   -0.4861 H   0  0  0  0  0  0  0  0  0  0  0  0
   -1.6175   -4.1154   -1.3928 H   0  0  0  0  0  0  0  0  0  0  0  0
    1.7796   -2.4534    3.4805 H   0  0  0  0  0  0  0  0  0  0  0  0
   -2.7450    0.4373    3.3715 H   0  0  0  0  0  0  0  0  0  0  0  0
   -1.2680    0.8602    3.8858 H   0  0  0  0  0  0  0  0  0  0  0  0
    1.7473    3.2447    2.1496 H   0  0  0  0  0  0  0  0  0  0  0  0
    0.4019    3.4320    1.2627 H   0  0  0  0  0  0  0  0  0  0  0  0
  1  2  1  0  0  0  0
  3  1  1  0  0  0  0
  3  4  1  0  0  0  0
  5  3  1  0  0  0  0
  5  6  1  0  0  0  0
  7  5  1  0  0  0  0
  7  8  1  0  0  0  0
  9  7  1  0  0  0  0
  9 10  1  0  0  0  0
 11  9  1  0  0  0  0
 12 11  1  0  0  0  0
 13  9  1  0  0  0  0
 13  1  1  0  0  0  0
 14  7  1  0  0  0  0
 15  5  1  0  0  0  0
 16  3  1  0  0  0  0
 17  1  1  0  0  0  0
 18 17  1  0  0  0  0
 18 19  1  0  0  0  0
 20 18  1  0  0  0  0
 20 21  1  0  0  0  0
 22 20  1  0  0  0  0
 23 22  1  0  0  0  0
 23 24  1  0  0  0  0
 25 23  1  0  0  0  0
 25 26  1  0  0  0  0
 27 25  1  0  0  0  0
 28 27  1  0  0  0  0
 28 29  1  0  0  0  0
 30 28  1  0  0  0  0
 30 31  1  0  0  0  0
 32 30  1  0  0  0  0
 33 32  1  0  0  0  0
 33 34  1  0  0  0  0
 35 33  1  0  0  0  0
 35 36  1  0  0  0  0
 37 35  1  0  0  0  0
 38 37  1  0  0  0  0
 39 35  1  0  0  0  0
 39 28  1  0  0  0  0
 40 33  1  0  0  0  0
 41 30  1  0  0  0  0
 42 25  1  0  0  0  0
 42 43  1  0  0  0  0
 42 18  1  0  0  0  0
 44 42  1  0  0  0  0
 45 23  1  0  0  0  0
 46 20  1  0  0  0  0
 11 47  1  0  0  0  0
 11 48  1  0  0  0  0
 12 49  1  0  0  0  0
 14 50  1  0  0  0  0
 15 51  1  0  0  0  0
 15 52  1  0  0  0  0
 16 53  1  0  0  0  0
 22 54  1  0  0  0  0
 22 55  1  0  0  0  0
 32 56  1  0  0  0  0
 32 57  1  0  0  0  0
 37 58  1  0  0  0  0
 37 59  1  0  0  0  0
 38 60  1  0  0  0  0
 38 61  1  0  0  0  0
 40 62  1  0  0  0  0
 41 63  1  0  0  0  0
 41 64  1  0  0  0  0
 44 65  1  0  0  0  0
 45 66  1  0  0  0  0
 45 67  1  0  0  0  0
 46 68  1  0  0  0  0
 46 69  1  0  0  0  0
M  END
>  <energy>
97.744411224957531

$$$$
