REMARK  5 active torsions:
REMARK  status: ('A' for Active; 'I' for Inactive)
REMARK    1  A    between atoms: N_22  and  C_2 
REMARK    2  A    between atoms: C_20  and  N_7 
REMARK    3  A    between atoms: C_12  and  C_8 
REMARK    4  A    between atoms: N_13  and  C_12 
REMARK    5  A    between atoms: C_14  and  N_13 
ROOT
ATOM      1  N   UNL d   1       2.509   1.370  -0.707  0.00  0.00    -0.210 NA
ATOM      2  C   UNL d   1       1.947   2.427  -0.180  0.00  0.00     0.180 C 
ATOM      3  N   UNL d   1       1.101   2.108   0.873  0.00  0.00    -0.300 N 
ATOM      4  C   UNL d   1       0.875   0.783   1.323  0.00  0.00     0.254 C 
ATOM      5  O   UNL d   1       0.046   0.516   2.194  0.00  0.00    -0.270 OA
ATOM      6  C   UNL d   1       1.859  -0.293   0.762  0.00  0.00     0.243 C 
ATOM      7  N   UNL d   1       1.240  -1.622   0.731  0.00  0.00    -0.332 N 
ATOM      8  C   UNL d   1       0.713  -2.216  -0.514  0.00  0.00     0.114 C 
ATOM      9  C   UNL d   1       1.060  -1.438  -1.786  0.00  0.00     0.120 C 
ATOM     10  N   UNL d   1       2.329  -0.751  -1.662  0.00  0.00    -0.277 NA
ATOM     11  C   UNL d   1       2.438   0.070  -0.582  0.00  0.00     0.116 C 
ATOM     12  H   UNL d   1       0.472   2.834   1.209  0.00  0.00     0.171 HD
ATOM     13  H   UNL d   1       2.655  -0.366  -2.546  0.00  0.00     0.129 HD
ENDROOT
BRANCH   8  14
ATOM     14  C   UNL d   1      -0.821  -2.432  -0.432  0.00  0.00     0.119 C 
BRANCH  14  15
ATOM     15  N   UNL d   1      -1.116  -3.788   0.061  0.00  0.00    -0.291 NA
ATOM     16  H   UNL d   1      -1.299  -3.776   1.067  0.00  0.00     0.127 HD
BRANCH  15  17
ATOM     17  C   UNL d   1      -2.079  -4.566  -0.613  0.00  0.00     0.008 A 
ATOM     18  C   UNL d   1      -2.197  -4.596  -2.012  0.00  0.00     0.023 A 
ATOM     19  C   UNL d   1      -3.173  -5.382  -2.640  0.00  0.00     0.002 A 
ATOM     20  C   UNL d   1      -4.003  -6.209  -1.890  0.00  0.00     0.000 A 
ATOM     21  C   UNL d   1      -3.862  -6.244  -0.508  0.00  0.00     0.002 A 
ATOM     22  C   UNL d   1      -2.905  -5.437   0.121  0.00  0.00     0.023 A 
ENDBRANCH  15  17
ENDBRANCH  14  15
ENDBRANCH   8  14
BRANCH   7  23
ATOM     23  C   UNL d   1       1.441  -2.464   1.820  0.00  0.00     0.352 C 
ATOM     24  O   UNL d   1       2.523  -2.870   2.223  0.00  0.00    -0.283 OA
ENDBRANCH   7  23
BRANCH   2  25
ATOM     25  N   UNL d   1       2.313   3.696  -0.527  0.00  0.00    -0.272 NA
ATOM     26  H   UNL d   1       2.564   3.814  -1.508  0.00  0.00     0.127 HD
ATOM     27  H   UNL d   1       1.632   4.412  -0.289  0.00  0.00     0.127 HD
ENDBRANCH   2  25
TORSDOF 5
