@<TRIPOS>MOLECULE
ligand.pdb
 39 41 0 0 0
SMALL
GASTEIGER

@<TRIPOS>ATOM
      1 N           2.5085    1.3701   -0.7073 N.2     1  UNL1       -0.3613
      2 C           1.9469    2.4267   -0.1799 C.2     1  UNL1        0.2388
      3 N           1.1010    2.1084    0.8734 N.am    1  UNL1       -0.2461
      4 C           0.8752    0.7830    1.3232 C.2     1  UNL1        0.2489
      5 O           0.0465    0.5162    2.1938 O.2     1  UNL1       -0.2728
      6 C           1.8587   -0.2929    0.7618 C.3     1  UNL1        0.1701
      7 H           2.7073   -0.3251    1.4596 H       1  UNL1        0.0688
      8 N           1.2398   -1.6217    0.7309 N.am    1  UNL1       -0.2793
      9 C           0.7129   -2.2165   -0.5136 C.3     1  UNL1        0.0578
     10 H           1.2063   -3.1903   -0.5854 H       1  UNL1        0.0532
     11 C           1.0596   -1.4376   -1.7855 C.3     1  UNL1        0.0312
     12 N           2.3294   -0.7508   -1.6616 N.pl3   1  UNL1       -0.3190
     13 C           2.4377    0.0696   -0.5819 C.2     1  UNL1        0.1802
     14 C          -0.8211   -2.4317   -0.4316 C.3     1  UNL1        0.0292
     15 N          -1.1157   -3.7882    0.0611 N.pl3   1  UNL1       -0.3420
     16 C          -2.0785   -4.5663   -0.6130 C.ar    1  UNL1        0.0272
     17 C          -2.1972   -4.5962   -2.0120 C.ar    1  UNL1       -0.0409
     18 C          -3.1733   -5.3816   -2.6405 C.ar    1  UNL1       -0.0600
     19 C          -4.0028   -6.2090   -1.8899 C.ar    1  UNL1       -0.0616
     20 C          -3.8618   -6.2436   -0.5077 C.ar    1  UNL1       -0.0600
     21 C          -2.9051   -5.4372    0.1215 C.ar    1  UNL1       -0.0409
     22 C           1.4409   -2.4638    1.8199 C.2     1  UNL1        0.2038
     23 O           2.5235   -2.8700    2.2229 O.2     1  UNL1       -0.2793
     24 N           2.3131    3.6958   -0.5275 N.pl3   1  UNL1       -0.3207
     25 H           0.4725    2.8339    1.2091 H       1  UNL1        0.1585
     26 H           0.2768   -0.6973   -1.9817 H       1  UNL1        0.0481
     27 H           1.0834   -2.1029   -2.6493 H       1  UNL1        0.0481
     28 H           2.6550   -0.3661   -2.5459 H       1  UNL1        0.1482
     29 H          -1.2807   -2.2283   -1.4089 H       1  UNL1        0.0480
     30 H          -1.2529   -1.7018    0.2629 H       1  UNL1        0.0480
     31 H          -1.2992   -3.7760    1.0668 H       1  UNL1        0.1461
     32 H          -1.5366   -4.0063   -2.6427 H       1  UNL1        0.0636
     33 H          -3.2705   -5.3633   -3.7226 H       1  UNL1        0.0618
     34 H          -4.7507   -6.8257   -2.3793 H       1  UNL1        0.0618
     35 H          -4.4827   -6.9137    0.0807 H       1  UNL1        0.0618
     36 H          -2.8068   -5.5060    1.2027 H       1  UNL1        0.0636
     37 H           0.4821   -2.7692    2.2754 H       1  UNL1        0.1254
     38 H           2.5643    3.8141   -1.5085 H       1  UNL1        0.1459
     39 H           1.6318    4.4115   -0.2888 H       1  UNL1        0.1459
@<TRIPOS>BOND
     1     2     1    2
     2     3     2    1
     3     4     3   am
     4     5     4    2
     5     6     4    1
     6     6     7    1
     7     8     6    1
     8     9     8    1
     9     9    10    1
    10    11     9    1
    11    12    11    1
    12    13    12    1
    13    13     1    2
    14    13     6    1
    15    14     9    1
    16    15    14    1
    17    16    15    1
    18    17    16   ar
    19    18    17   ar
    20    19    18   ar
    21    20    19   ar
    22    21    20   ar
    23    21    16   ar
    24    22     8   am
    25    23    22    2
    26    24     2    1
    27     3    25    1
    28    11    26    1
    29    11    27    1
    30    12    28    1
    31    14    29    1
    32    14    30    1
    33    15    31    1
    34    17    32    1
    35    18    33    1
    36    19    34    1
    37    20    35    1
    38    21    36    1
    39    22    37    1
    40    24    38    1
    41    24    39    1
