@<TRIPOS>MOLECULE
2XNZ_3AW_A_1088
 9 9 0 0 0
SMALL
GASTEIGER
****
Coordinates from PDB:2XNZ:A:1088 Model:1 without hydrogens
@<TRIPOS>ATOM
      1 N          11.9750    1.7570   11.5000 N.ar    1  UNL1       -0.1961
      2 C          11.9410    2.3020   12.7330 C.ar    1  UNL1        0.1455
      3 C          12.4240    3.7380   12.9540 C.3     1  UNL1        0.0739
      4 N          11.5010    1.5820   13.7780 N.ar    1  UNL1       -0.1961
      5 C          11.5490    0.4910   11.3310 C.ar    1  UNL1        0.2601
      6 C          11.0740    0.3270   13.6040 C.ar    1  UNL1        0.2601
      7 N          11.0970   -0.2110   12.3820 N.ar    1  UNL1       -0.1756
      8 N          10.6190   -0.3980   14.6220 N.pl3   1  UNL1       -0.0859
      9 N          11.5590   -0.0830   10.1220 N.pl3   1  UNL1       -0.0859
@<TRIPOS>BOND
     1     1     5   ar
     2     2     3    1
     3     2     1   ar
     4     4     2   ar
     5     4     6   ar
     6     5     7   ar
     7     5     9    1
     8     7     6   ar
     9     8     6    1
