@<TRIPOS>MOLECULE
3GCA_PQ0_A_34
 13 14 0 0 0
SMALL
GASTEIGER
****
Coordinates from PDB:3GCA:A:34 Model:1 without hydrogens
@<TRIPOS>ATOM
      1 N          34.1500   33.9600   23.0350 N.ar    1  UNL1       -0.1722
      2 C          33.3460   32.6700   23.4820 C.ar    1  UNL1        0.2606
      3 N          33.8220   32.1560   24.5370 N.ar    1  UNL1       -0.1918
      4 C          34.8820   32.4990   25.2940 C.ar    1  UNL1        0.1706
      5 C          35.6270   33.5770   24.9800 C.ar    1  UNL1        0.1048
      6 C          35.2020   34.4100   23.7070 C.ar    1  UNL1        0.2853
      7 O          35.8690   35.3570   23.4390 O.2     1  UNL1       -0.2650
      8 C          36.7770   33.8160   25.9760 C.ar    1  UNL1        0.0952
      9 C          37.7820   34.9010   25.9110 C.1     1  UNL1        0.1022
     10 N          38.5260   35.7820   25.8260 N.1     1  UNL1       -0.1908
     11 C          36.6760   32.8260   26.8700 C.ar    1  UNL1        0.1111
     12 N          35.6370   31.9590   26.6630 N.ar    1  UNL1       -0.2241
     13 N          32.2540   32.2680   22.7380 N.pl3   1  UNL1       -0.0859
@<TRIPOS>BOND
     1     1     2   ar
     2     1     6   ar
     3     2     3   ar
     4     2    13    1
     5     3     4   ar
     6     4     5   ar
     7     4    12   ar
     8     5     6   ar
     9     5     8   ar
    10     6     7    2
    11     8     9    1
    12     8    11   ar
    13     9    10    3
    14    11    12   ar
