REMARK  0 active torsions:
REMARK  status: ('A' for Active; 'I' for Inactive)
ROOT
ATOM      1  N   UNL d   1      34.150  33.960  23.035  0.00  0.00    -0.176 NA
ATOM      2  C   UNL d   1      33.346  32.670  23.482  0.00  0.00     0.241 A 
ATOM      3  N   UNL d   1      33.822  32.156  24.537  0.00  0.00    -0.195 NA
ATOM      4  C   UNL d   1      34.882  32.499  25.294  0.00  0.00     0.170 A 
ATOM      5  C   UNL d   1      35.627  33.577  24.980  0.00  0.00     0.105 A 
ATOM      6  C   UNL d   1      35.202  34.410  23.707  0.00  0.00     0.285 A 
ATOM      7  O   UNL d   1      35.869  35.357  23.439  0.00  0.00    -0.265 OA
ATOM      8  C   UNL d   1      36.777  33.816  25.976  0.00  0.00     0.095 A 
ATOM      9  C   UNL d   1      37.782  34.901  25.911  0.00  0.00     0.103 C 
ATOM     10  N   UNL d   1      38.526  35.782  25.826  0.00  0.00    -0.191 NA
ATOM     11  C   UNL d   1      36.676  32.826  26.870  0.00  0.00     0.111 A 
ATOM     12  N   UNL d   1      35.637  31.959  26.663  0.00  0.00    -0.224 NA
ATOM     13  N   UNL d   1      32.254  32.268  22.738  0.00  0.00    -0.059 NA
ENDROOT
TORSDOF 0
