3GCA_PQ0_A_34
 OpenBabel10091713573D
Coordinates from PDB:3GCA:A:34 Model:1 without hydrogens
 13 14  0  0  0  0  0  0  0  0999 V2000
   34.1500   33.9600   23.0350 N   0  0  0  0  0  0  0  0  0  0  0  0
   33.3460   32.6700   23.4820 C   0  0  0  0  0  0  0  0  0  0  0  0
   33.8220   32.1560   24.5370 N   0  0  0  0  0  0  0  0  0  0  0  0
   34.8820   32.4990   25.2940 C   0  0  0  0  0  0  0  0  0  0  0  0
   35.6270   33.5770   24.9800 C   0  0  0  0  0  0  0  0  0  0  0  0
   35.2020   34.4100   23.7070 C   0  0  0  0  0  0  0  0  0  0  0  0
   35.8690   35.3570   23.4390 O   0  0  0  0  0  0  0  0  0  0  0  0
   36.7770   33.8160   25.9760 C   0  0  0  0  0  0  0  0  0  0  0  0
   37.7820   34.9010   25.9110 C   0  0  0  0  0  0  0  0  0  0  0  0
   38.5260   35.7820   25.8260 N   0  0  0  0  0  0  0  0  0  0  0  0
   36.6760   32.8260   26.8700 C   0  0  0  0  0  0  0  0  0  0  0  0
   35.6370   31.9590   26.6630 N   0  0  0  0  0  0  0  0  0  0  0  0
   32.2540   32.2680   22.7380 N   0  0  0  0  0  0  0  0  0  0  0  0
  1  2  1  0  0  0  0
  1  6  1  0  0  0  0
  2  3  2  0  0  0  0
  2 13  1  0  0  0  0
  3  4  1  0  0  0  0
  4  5  2  0  0  0  0
  4 12  1  0  0  0  0
  5  6  1  0  0  0  0
  5  8  1  0  0  0  0
  6  7  2  0  0  0  0
  8  9  1  0  0  0  0
  8 11  2  0  0  0  0
  9 10  3  0  0  0  0
 11 12  1  0  0  0  0
A    1
N1
A    2
C2
A    3
N3
A    4
C4
A    5
C5
A    6
C6
A    7
O6
A    8
C7
A    9
C10
A   10
N11
A   11
C8
A   12
N9
A   13
N2
M  END
>  <InstanceId>
3GCA_PQ0_A_34

>  <ChemCompId>
PQ0

>  <PdbId>
3GCA

>  <ChainId>
A

>  <ResidueNumber>
34

>  <InsertionCode>


>  <Model>
1

>  <AltIds>


>  <MissingHeavyAtoms>
0

>  <ObservedFormula>
C7 N5 O

>  <Name>
2-AMINO-4-OXO-4,7-DIHYDRO-3H-PYRROLO[2,3-D]PYRIMIDINE-5-CARBONITRILE

>  <SystematicName>
2-amino-4-oxo-3,7-dihydropyrrolo[5,4-d]pyrimidine-5-carbonitrile

>  <Synonyms>
7-DEAZA-7-CYANO-GUANINE

>  <Type>
NON-POLYMER

>  <Formula>
C7 H5 N5 O

>  <MolecularWeight>
175.147

>  <ModifiedDate>
2011-06-04

>  <Parent>


>  <OneLetterCode>


>  <SubcomponentList>


>  <AmbiguousFlag>
N

>  <InChI>
InChI=1S/C7H5N5O/c8-1-3-2-10-5-4(3)6(13)12-7(9)11-5/h2H,(H4,9,10,11,12,13)

>  <InChIKey>
FMKSMYDYKXQYRV-UHFFFAOYSA-N

>  <SMILES>
c1c(c2c([nH]1)N=C(NC2=O)N)C#N

$$$$
