@<TRIPOS>MOLECULE
2O3W_PAR_B_101
 87 90 0 0 0
SMALL
GASTEIGER

@<TRIPOS>ATOM
      1 C           4.9980   16.2359    3.0742 C.3     1  UNL1        0.1776
      2 H           4.6792   16.5648    4.0608 H       1  UNL1        0.0927
      3 O           3.8208   16.1200    2.2738 O.3     1  UNL1       -0.3422
      4 C           2.8211   15.1877    2.7246 C.3     1  UNL1        0.1055
      5 H           1.9725   15.4292    2.0735 H       1  UNL1        0.0639
      6 C           2.3653   15.4518    4.2015 C.3     1  UNL1        0.0355
      7 H           3.2062   15.2070    4.8610 H       1  UNL1        0.0485
      8 C           1.1921   14.5578    4.6255 C.3     1  UNL1       -0.0175
      9 C           1.5251   13.0945    4.3455 C.3     1  UNL1        0.0351
     10 H           2.4303   12.8291    4.9065 H       1  UNL1        0.0485
     11 N           0.4866   12.1810    4.8283 N.3     1  UNL1       -0.3250
     12 C           1.8120   12.9093    2.8307 C.3     1  UNL1        0.0990
     13 H           0.9936   13.3372    2.2322 H       1  UNL1        0.0636
     14 C           3.1369   13.6517    2.4802 C.3     1  UNL1        0.1166
     15 H           3.9318   13.3113    3.1546 H       1  UNL1        0.0650
     16 O           3.6064   13.4555    1.1347 O.3     1  UNL1       -0.3402
     17 C           3.9113   12.1184    0.7160 C.3     1  UNL1        0.1884
     18 H           2.9981   11.5273    0.6950 H       1  UNL1        0.0938
     19 C           4.4654   12.1768   -0.7120 C.3     1  UNL1        0.1345
     20 H           5.3606   12.8123   -0.7348 H       1  UNL1        0.0671
     21 O           3.5412   12.7080   -1.6551 O.3     1  UNL1       -0.3841
     22 C           4.8631   10.7188   -0.9266 C.3     1  UNL1        0.1205
     23 H           5.5551   10.5651   -1.7595 H       1  UNL1        0.0651
     24 O           3.7447    9.8222   -1.0973 O.3     1  UNL1       -0.3410
     25 C           2.9775    9.9411   -2.3061 C.3     1  UNL1        0.1776
     26 H           2.5608   10.9433   -2.3650 H       1  UNL1        0.0927
     27 C           1.7785    8.9489   -2.2199 C.3     1  UNL1        0.0853
     28 H           1.2370    9.1278   -1.2866 H       1  UNL1        0.0535
     29 N           2.2585    7.5410   -2.2026 N.3     1  UNL1       -0.3211
     30 C           0.8375    9.2188   -3.4178 C.3     1  UNL1        0.1033
     31 H           0.0524    8.4527   -3.4120 H       1  UNL1        0.0637
     32 O           0.1459   10.4646   -3.2981 O.3     1  UNL1       -0.3874
     33 C           1.5939    9.1379   -4.7584 C.3     1  UNL1        0.1100
     34 H           0.9897    9.5584   -5.5737 H       1  UNL1        0.0646
     35 O           1.8411    7.7627   -5.0964 O.3     1  UNL1       -0.3866
     36 C           2.9331    9.9385   -4.7034 C.3     1  UNL1        0.1022
     37 H           2.7011   11.0127   -4.7030 H       1  UNL1        0.0636
     38 O           3.7024    9.6568   -3.5110 O.3     1  UNL1       -0.3425
     39 C           3.7721    9.6067   -5.9618 C.3     1  UNL1        0.0222
     40 N           4.9701   10.4290   -6.1083 N.3     1  UNL1       -0.3276
     41 C           5.5050   10.4396    0.4692 C.3     1  UNL1        0.1135
     42 H           5.2600    9.4253    0.8131 H       1  UNL1        0.0647
     43 O           4.9283   11.3955    1.4334 O.3     1  UNL1       -0.3405
     44 C           7.0307   10.6206    0.4776 C.3     1  UNL1        0.0730
     45 O           7.6570    9.7670   -0.4714 O.3     1  UNL1       -0.3924
     46 O           1.8229   11.5222    2.5132 O.3     1  UNL1       -0.3876
     47 N           2.0180   16.8541    4.4899 N.3     1  UNL1       -0.3250
     48 C           5.9309   17.3608    2.5233 C.3     1  UNL1        0.0853
     49 H           5.3914   18.3127    2.6056 H       1  UNL1        0.0535
     50 N           6.2620   17.1966    1.0881 N.3     1  UNL1       -0.3211
     51 C           7.2074   17.4179    3.3969 C.3     1  UNL1        0.1033
     52 H           7.9423   18.0467    2.8800 H       1  UNL1        0.0637
     53 O           6.9650   18.1072    4.6270 O.3     1  UNL1       -0.3874
     54 C           7.8337   16.0259    3.6215 C.3     1  UNL1        0.1109
     55 H           8.6110   16.0730    4.3909 H       1  UNL1        0.0646
     56 O           8.4732   15.5889    2.4056 O.3     1  UNL1       -0.3865
     57 C           6.8070   14.9406    3.9949 C.3     1  UNL1        0.1129
     58 H           7.2591   13.9651    3.7791 H       1  UNL1        0.0647
     59 O           5.6556   14.9840    3.1500 O.3     1  UNL1       -0.3415
     60 C           6.4004   14.8965    5.4778 C.3     1  UNL1        0.0730
     61 O           5.8794   16.1396    5.9406 O.3     1  UNL1       -0.3924
     62 H           0.2781   14.8446    4.0870 H       1  UNL1        0.0297
     63 H           0.9857   14.7002    5.6954 H       1  UNL1        0.0297
     64 H          -0.1813   11.9696    4.0870 H       1  UNL1        0.1185
     65 H          -0.0378   12.5963    5.5980 H       1  UNL1        0.1185
     66 H           2.7771   13.0060   -1.1281 H       1  UNL1        0.2101
     67 H           3.0667    7.5025   -2.8388 H       1  UNL1        0.1187
     68 H           1.5685    6.9200   -2.6139 H       1  UNL1        0.1187
     69 H           0.7550   11.2049   -3.4199 H       1  UNL1        0.2100
     70 H           0.9969    7.2805   -5.0428 H       1  UNL1        0.2100
     71 H           3.1557    9.7379   -6.8584 H       1  UNL1        0.0448
     72 H           4.0955    8.5571   -5.9360 H       1  UNL1        0.0448
     73 H           4.7249   11.4197   -6.1303 H       1  UNL1        0.1183
     74 H           5.4323   10.2136   -6.9911 H       1  UNL1        0.1183
     75 H           7.3003   11.6589    0.2581 H       1  UNL1        0.0584
     76 H           7.4378   10.3911    1.4695 H       1  UNL1        0.0584
     77 H           8.4684   10.2087   -0.7767 H       1  UNL1        0.2095
     78 H           2.0053   11.0288    3.3355 H       1  UNL1        0.2100
     79 H           2.5850   17.4708    3.9025 H       1  UNL1        0.1185
     80 H           1.0553   17.0512    4.2138 H       1  UNL1        0.1185
     81 H           6.6403   16.2538    0.9584 H       1  UNL1        0.1187
     82 H           6.9875   17.8537    0.8144 H       1  UNL1        0.1187
     83 H           6.5307   17.4928    5.2587 H       1  UNL1        0.2100
     84 H           9.0958   16.2952    2.1296 H       1  UNL1        0.2100
     85 H           5.6363   14.1253    5.6362 H       1  UNL1        0.0584
     86 H           7.2669   14.6541    6.0994 H       1  UNL1        0.0584
     87 H           4.9641   15.9756    6.2466 H       1  UNL1        0.2095
@<TRIPOS>BOND
     1     1    48    1
     2     1    59    1
     3     1     3    1
     4     1     2    1
     5     4     6    1
     6     4     5    1
     7     4     3    1
     8     6     7    1
     9     6     8    1
    10     6    47    1
    11     8     9    1
    12     8    62    1
    13     8    63    1
    14     9    12    1
    15     9    11    1
    16     9    10    1
    17    11    64    1
    18    11    65    1
    19    12    13    1
    20    12    14    1
    21    12    46    1
    22    14     4    1
    23    14    16    1
    24    14    15    1
    25    16    17    1
    26    17    18    1
    27    17    19    1
    28    17    43    1
    29    19    22    1
    30    19    21    1
    31    19    20    1
    32    21    66    1
    33    22    23    1
    34    22    24    1
    35    22    41    1
    36    25    27    1
    37    25    38    1
    38    25    26    1
    39    25    24    1
    40    27    30    1
    41    27    29    1
    42    27    28    1
    43    29    67    1
    44    29    68    1
    45    30    32    1
    46    30    31    1
    47    32    69    1
    48    33    30    1
    49    33    34    1
    50    33    35    1
    51    35    70    1
    52    36    33    1
    53    36    37    1
    54    36    38    1
    55    36    39    1
    56    39    40    1
    57    39    71    1
    58    39    72    1
    59    40    73    1
    60    40    74    1
    61    41    43    1
    62    41    44    1
    63    41    42    1
    64    44    45    1
    65    44    75    1
    66    44    76    1
    67    45    77    1
    68    46    78    1
    69    47    79    1
    70    47    80    1
    71    48    51    1
    72    48    50    1
    73    48    49    1
    74    50    81    1
    75    50    82    1
    76    51    54    1
    77    51    53    1
    78    51    52    1
    79    53    83    1
    80    54    55    1
    81    54    56    1
    82    54    57    1
    83    56    84    1
    84    57    59    1
    85    57    60    1
    86    57    58    1
    87    60    61    1
    88    60    85    1
    89    60    86    1
    90    61    87    1
