
 OpenBabel10081814293D
libRbt.so/2013.1/901 2013/11/27
 36 39  0  0  0  0  0  0  0  0999 V2000
    5.0774  -23.1654    4.6996 N   0  0  0  0  0  0  0  0  0  0  0  0
    6.8793  -19.4460    6.6577 C   0  0  0  0  0  0  0  0  0  0  0  0
    6.4668  -19.3648    7.8055 O   0  0  0  0  0  0  0  0  0  0  0  0
    7.6699  -20.6105    6.1222 C   0  0  0  0  0  0  0  0  0  0  0  0
    7.5265  -25.4087    3.0357 N   0  0  0  0  0  0  0  0  0  0  0  0
    6.6525  -18.4900    5.7351 O   0  0  0  0  0  0  0  0  0  0  0  0
    6.8902  -21.4206    5.0911 C   0  0  0  0  0  0  0  0  0  0  0  0
    8.2548  -27.4017    1.1265 N   0  0  0  0  0  0  0  0  0  0  0  0
    6.9161  -28.8423    6.0630 O   0  0  0  0  0  0  0  0  0  0  0  0
    5.7444  -22.2689    5.6727 C   0  0  0  0  0  0  0  0  0  0  0  0
    7.5113  -29.4334    3.9988 N   0  0  0  0  0  0  0  0  0  0  0  0
    8.1843  -30.1057    1.9305 O   0  0  0  0  0  0  0  0  0  0  0  0
    5.7943  -24.4595    4.5515 C   0  0  0  0  0  0  0  0  0  0  0  0
    7.2337  -27.1627    4.5808 N   0  0  0  0  0  0  0  0  0  0  0  0
    7.2635  -24.3907    4.0577 C   0  0  0  0  0  0  0  0  0  0  0  0
    7.8890  -25.0277    1.7275 C   0  0  0  0  0  0  0  0  0  0  0  0
    8.2561  -26.0295    0.8040 C   0  0  0  0  0  0  0  0  0  0  0  0
    7.9085  -27.7589    2.3278 C   0  0  0  0  0  0  0  0  0  0  0  0
    7.8873  -29.2152    2.7083 C   0  0  0  0  0  0  0  0  0  0  0  0
    7.2075  -28.4820    4.9270 C   0  0  0  0  0  0  0  0  0  0  0  0
    7.5317  -26.7517    3.3856 C   0  0  0  0  0  0  0  0  0  0  0  0
    8.6449  -25.6753   -0.4946 C   0  0  0  0  0  0  0  0  0  0  0  0
    8.6780  -24.3372   -0.9197 C   0  0  0  0  0  0  0  0  0  0  0  0
    9.1276  -24.0225   -2.3190 C   0  0  0  0  0  0  0  0  0  0  0  0
    8.2955  -23.3328   -0.0195 C   0  0  0  0  0  0  0  0  0  0  0  0
    8.2878  -21.8668   -0.3642 C   0  0  0  0  0  0  0  0  0  0  0  0
    7.9049  -23.6952    1.2827 C   0  0  0  0  0  0  0  0  0  0  0  0
    3.6584  -23.4361    5.0641 C   0  0  0  0  0  0  0  0  0  0  0  0
    3.5233  -24.4326    6.1896 C   0  0  0  0  0  0  0  0  0  0  0  0
    4.4605  -24.4561    7.2299 C   0  0  0  0  0  0  0  0  0  0  0  0
    4.5009  -25.5375    8.1066 C   0  0  0  0  0  0  0  0  0  0  0  0
    3.5806  -26.5759    7.9761 C   0  0  0  0  0  0  0  0  0  0  0  0
    2.5806  -26.5082    7.0090 C   0  0  0  0  0  0  0  0  0  0  0  0
    2.5460  -25.4355    6.1216 C   0  0  0  0  0  0  0  0  0  0  0  0
    6.1189  -17.7507    6.0924 H   0  0  0  0  0  0  0  0  0  0  0  0
    7.4750  -30.3867    4.3195 H   0  0  0  0  0  0  0  0  0  0  0  0
  1 10  1  0  0  0  0
  1 13  1  0  0  0  0
  1 28  1  0  0  0  0
  2  4  1  0  0  0  0
  2  3  2  0  0  0  0
  2  6  1  0  0  0  0
  4  7  1  0  0  0  0
  5 15  1  0  0  0  0
  5 16  1  0  0  0  0
  5 21  1  0  0  0  0
  6 35  1  0  0  0  0
  7 10  1  0  0  0  0
  8 17  1  0  0  0  0
  9 20  2  0  0  0  0
 11 19  1  0  0  0  0
 11 20  1  0  0  0  0
 11 36  1  0  0  0  0
 12 19  2  0  0  0  0
 13 15  1  0  0  0  0
 14 20  1  0  0  0  0
 14 21  2  0  0  0  0
 16 17  2  0  0  0  0
 16 27  1  0  0  0  0
 17 22  1  0  0  0  0
 18  8  2  0  0  0  0
 18 19  1  0  0  0  0
 18 21  1  0  0  0  0
 22 23  2  0  0  0  0
 23 24  1  0  0  0  0
 23 25  1  0  0  0  0
 25 26  1  0  0  0  0
 25 27  2  0  0  0  0
 28 29  1  0  0  0  0
 29 30  2  0  0  0  0
 29 34  1  0  0  0  0
 30 31  1  0  0  0  0
 31 32  2  0  0  0  0
 32 33  1  0  0  0  0
 33 34  2  0  0  0  0
M  END
>  <CHROM.0>
-47.23197108,92.46768745,72.38102336,-170.85434744,-162.08954256,53.24680743
-57.48713270,62.51835148,-56.73727822,56.96685911,65.43472240,-72.66658971
178.51491914,-179.04497109,65.70309432,176.23429435,-73.38240687,-177.60517409
-53.69453635,-63.42924690

>  <CHROM.1>
84.91562758,-60.09989155,-76.68439951,111.68042335,-0.78672947,-72.04420788
117.24082493,-173.83087510,-135.87859953,35.39866462,6.67356634,-24.77990881
3.91339421,-2.40500554,-1.04367371,-3.04417386

>  <Name>


>  <RI>
2.53522e+07

>  <Rbt.Current_Directory>
/home/fstefaniak/gitlab/AnnapuRNA-publication/case_studies/6DN2/2YIF

>  <Rbt.Executable>
rbdock ($Id: //depot/dev/client3/rdock/2013.1/src/exe/rbdock.cxx#4 $)

>  <Rbt.Library>
libRbt.so (2013.1, Build901 2013/11/27)

>  <Rbt.Parameter_File>
/home/fstefaniak/progs/rDock//data/scripts/dock_solv.prm

>  <Rbt.Receptor>
system.prm

>  <SCORE>
-108.601

>  <SCORE.INTER>
-72.0869

>  <SCORE.INTER.CONST>
1

>  <SCORE.INTER.POLAR>
-5.97359

>  <SCORE.INTER.ROT>
9

>  <SCORE.INTER.SOLV>
21.0275

>  <SCORE.INTER.VDW>
-44.7551

>  <SCORE.INTER.norm>
-2.1202

>  <SCORE.INTRA>
3.36283

>  <SCORE.INTRA.DIHEDRAL>
4.27694

>  <SCORE.INTRA.DIHEDRAL.0>
6.40188

>  <SCORE.INTRA.POLAR>
0

>  <SCORE.INTRA.POLAR.0>
0

>  <SCORE.INTRA.REPUL>
0

>  <SCORE.INTRA.REPUL.0>
0

>  <SCORE.INTRA.SOLV>
-0.7782

>  <SCORE.INTRA.SOLV.lig_0>
-26.6032

>  <SCORE.INTRA.VDW>
1.61346

>  <SCORE.INTRA.VDW.0>
-0.660127

>  <SCORE.INTRA.norm>
0.0989069

>  <SCORE.RESTR>
0

>  <SCORE.RESTR.CAVITY>
0

>  <SCORE.RESTR.norm>
0

>  <SCORE.SYSTEM>
-39.8771

>  <SCORE.SYSTEM.CONST>
0

>  <SCORE.SYSTEM.DIHEDRAL>
12.5327

>  <SCORE.SYSTEM.POLAR>
-8.01137

>  <SCORE.SYSTEM.SOLV>
-0.524023

>  <SCORE.SYSTEM.VDW>
-3.88308

>  <SCORE.SYSTEM.norm>
-1.17286

>  <SCORE.heavy>
34

>  <SCORE.norm>
-3.19415

$$$$
