@<TRIPOS>MOLECULE
2YIF_clean_aligned.pdb
3479 3756 108 0 0
NUCLEIC_ACID
AMBER ff14SB


@<TRIPOS>ATOM
      1 C5'        38.4510  -28.6920    0.8230 C.3       1   G    0.0558
      2 O5'        38.1660  -28.5320    2.2070 O.3       1   G   -0.6223
      3 C4'        39.2860  -29.9220    0.5730 C.3       1   G    0.1065
      4 O4'        40.5080  -29.8430    1.3540 O.3       1   G   -0.3548
      5 C3'        38.6560  -31.2430    0.9940 C.3       1   G    0.2022
      6 O3'        37.7790  -31.7760    0.0160 O.3       1   G   -0.5246
      7 C2'        39.8670  -32.1190    1.2750 C.3       1   G    0.0670
      8 O2'        40.4440  -32.5830    0.0640 O.3       1   G   -0.6139
      9 C1'        40.8170  -31.1060    1.9020 C.3       1   G    0.0191
     10 N1         41.3250  -33.4630    6.3900 N.am      1   G   -0.4787
     11 C2         41.6270  -33.9210    5.1300 C.2       1   G    0.7657
     12 N2         42.1270  -35.1630    5.0530 N.pl3     1   G   -0.9672
     13 N3         41.4510  -33.2130    4.0260 N.2       1   G   -0.6323
     14 C4         40.9410  -31.9920    4.2890 C.ar      1   G    0.1222
     15 C5         40.6040  -31.4390    5.5080 C.ar      1   G    0.1744
     16 C6         40.7980  -32.2090    6.6850 C.2       1   G    0.4770
     17 O6         40.5610  -31.8930    7.8590 O.2       1   G   -0.5597
     18 N7         40.1070  -30.1530    5.3510 N.ar      1   G   -0.5709
     19 C8         40.1500  -29.9510    4.0640 C.ar      1   G    0.1374
     20 N9         40.6450  -31.0250    3.3630 N.ar      1   G    0.0492
     21 H5'        37.5127  -28.7831    0.2759 H         1   G    0.0679
     22 H5''       38.9901  -27.8149    0.4651 H         1   G    0.0679
     23 H4'        39.5418  -29.9702   -0.4855 H         1   G    0.1174
     24 H3'        38.1038  -31.0930    1.9217 H         1   G    0.0615
     25 H2'        39.6319  -32.9366    1.9565 H         1   G    0.0972
     26 H1'        41.8477  -31.3697    1.6651 H         1   G    0.2006
     27 H1         41.4996  -34.0869    7.1648 H         1   G    0.3424
     28 H8         39.8291  -29.0324    3.5955 H         1   G    0.1640
     29 H21        42.2623  -35.7059    5.8938 H         1   G    0.4364
     30 H22        42.3683  -35.5554    4.1542 H         1   G    0.4364
     31 HO2'       39.8578  -33.2235   -0.3455 H         1   G    0.4186
     32 HO5'       37.7900  -27.7155    2.5439 H         1   G    0.4295
     33 P          36.3250  -32.3050    0.4430 P.3       2   A    1.1662
     34 C5'        37.0430  -34.7810   -0.0460 C.3       2   A    0.0558
     35 O5'        36.6100  -33.8070    0.8930 O.3       2   A   -0.4989
     36 C4'        37.6450  -35.9820    0.6380 C.3       2   A    0.1065
     37 O4'        38.7900  -35.5710    1.4360 O.3       2   A   -0.3548
     38 C3'        36.7490  -36.7020    1.6340 C.3       2   A    0.2022
     39 O3'        35.8280  -37.5860    1.0230 O.3       2   A   -0.5246
     40 C2'        37.7570  -37.3930    2.5370 C.3       2   A    0.0670
     41 O2'        38.3190  -38.5250    1.8880 O.3       2   A   -0.6139
     42 C1'        38.8320  -36.3150    2.6360 C.3       2   A    0.0394
     43 N1         38.9390  -35.6690    7.7470 N.ar      2   A   -0.7615
     44 C2         39.2690  -36.7030    6.9620 C.ar      2   A    0.5875
     45 N3         39.2180  -36.8040    5.6360 N.ar      2   A   -0.6997
     46 C4         38.7610  -35.6640    5.0930 C.ar      2   A    0.3053
     47 C5         38.3800  -34.5160    5.7660 C.ar      2   A    0.0515
     48 C6         38.4820  -34.5370    7.1680 C.ar      2   A    0.7009
     49 N6         38.1540  -33.5070    7.9520 N.pl3     2   A   -0.9019
     50 N7         37.9590  -33.5400    4.8720 N.ar      2   A   -0.6073
     51 C8         38.0920  -34.1100    3.7000 C.ar      2   A    0.2006
     52 N9         38.5750  -35.3950    3.7590 N.ar      2   A   -0.0251
     53 OP1        35.8940  -31.5010    1.6130 O.co2     2   A   -0.7760
     54 OP2        35.4810  -32.2960   -0.7780 O.co2     2   A   -0.7760
     55 H5'        37.7921  -34.3338   -0.6994 H         2   A    0.0679
     56 H5''       36.1915  -35.1016   -0.6462 H         2   A    0.0679
     57 H4'        37.9767  -36.6925   -0.1192 H         2   A    0.1174
     58 H3'        36.1990  -35.9626    2.2161 H         2   A    0.0615
     59 H2'        37.3344  -37.6437    3.5099 H         2   A    0.0972
     60 H1'        39.8121  -36.7776    2.7519 H         2   A    0.2007
     61 H2         39.6279  -37.5805    7.4793 H         2   A    0.0473
     62 H8         37.8447  -33.6152    2.7724 H         2   A    0.1553
     63 H61        37.8099  -32.6502    7.5426 H         2   A    0.4115
     64 H62        38.2500  -33.5847    8.9544 H         2   A    0.4115
     65 HO2'       37.6558  -39.2154    1.8164 H         2   A    0.4186
     66 P          34.3080  -37.6520    1.5450 P.3       3   U    1.1662
     67 C5'        34.7630  -39.8120    2.9610 C.3       3   U    0.0558
     68 O5'        34.4410  -38.4290    2.9310 O.3       3   U   -0.4989
     69 C4'        35.0740  -40.2850    4.3610 C.3       3   U    0.1065
     70 O4'        36.1260  -39.4700    4.9400 O.3       3   U   -0.3548
     71 C3'        33.9450  -40.1860    5.3740 C.3       3   U    0.2022
     72 O3'        32.9950  -41.2310    5.2590 O.3       3   U   -0.5246
     73 C2'        34.7000  -40.1900    6.6950 C.3       3   U    0.0670
     74 O2'        35.1310  -41.5030    7.0240 O.3       3   U   -0.6139
     75 C1'        35.9290  -39.3570    6.3360 C.3       3   U    0.0674
     76 N1         35.7420  -37.9320    6.6760 N.am      3   U    0.0418
     77 C2         35.8040  -37.5920    8.0150 C.2       3   U    0.4687
     78 O2         36.0080  -38.4090    8.9000 O.2       3   U   -0.5477
     79 N3         35.6180  -36.2570    8.2810 N.am      3   U   -0.3549
     80 C4         35.3800  -35.2510    7.3670 C.2       3   U    0.5952
     81 O4         35.2330  -34.0940    7.7670 O.2       3   U   -0.5761
     82 C5         35.3280  -35.6870    6.0040 C.2       3   U   -0.3635
     83 C6         35.5050  -36.9810    5.7110 C.2       3   U   -0.1126
     84 OP1        33.5490  -38.4770    0.5750 O.co2     3   U   -0.7760
     85 OP2        33.8700  -36.2560    1.7900 O.co2     3   U   -0.7760
     86 H5'        35.6337  -39.9852    2.3286 H         3   U    0.0679
     87 H5''       33.9202  -40.3827    2.5711 H         3   U    0.0679
     88 H4'        35.4154  -41.3191    4.3150 H         3   U    0.1174
     89 H3'        33.4394  -39.2279    5.2538 H         3   U    0.0615
     90 H2'        34.1197  -39.7369    7.4988 H         3   U    0.0972
     91 H1'        36.8010  -39.7468    6.8611 H         3   U    0.1824
     92 H3         35.6601  -35.9818    9.2519 H         3   U    0.3154
     93 H5         35.1463  -34.9732    5.2141 H         3   U    0.1811
     94 H6         35.4600  -37.2902    4.6772 H         3   U    0.2188
     95 HO2'       35.0371  -41.6432    7.9690 H         3   U    0.4186
     96 P          31.5020  -41.0320    5.8250 P.3       4   C    1.1662
     97 C5'        32.2360  -41.9240    8.1760 C.3       4   C    0.0558
     98 O5'        31.7370  -40.8530    7.3900 O.3       4   C   -0.4989
     99 C4'        32.2740  -41.5760    9.6440 C.3       4   C    0.1065
    100 O4'        33.2970  -40.5770    9.8970 O.3       4   C   -0.3548
    101 C3'        31.0190  -40.9470   10.2210 C.3       4   C    0.2022
    102 O3'        29.9810  -41.8800   10.4620 O.3       4   C   -0.5246
    103 C2'        31.5520  -40.2810   11.4820 C.3       4   C    0.0670
    104 O2'        31.7870  -41.2450   12.4980 O.3       4   C   -0.6139
    105 C1'        32.9030  -39.7640   10.9880 C.3       4   C    0.0066
    106 N1         32.8180  -38.3590   10.5360 N.am      4   C   -0.0484
    107 C2         32.8320  -37.3780   11.5270 C.2       4   C    0.7538
    108 O2         32.9260  -37.7410   12.7080 O.2       4   C   -0.6252
    109 N3         32.7500  -36.0730   11.1800 N.2       4   C   -0.7584
    110 C4         32.6520  -35.7370    9.8930 C.2       4   C    0.8185
    111 N4         32.5730  -34.4390    9.5940 N.pl3     4   C   -0.9530
    112 C5         32.6280  -36.7200    8.8590 C.2       4   C   -0.5215
    113 C6         32.7110  -38.0090    9.2200 C.2       4   C    0.0053
    114 OP1        30.9800  -39.7700    5.2460 O.co2     4   C   -0.7760
    115 OP2        30.7650  -42.2920    5.5670 O.co2     4   C   -0.7760
    116 H5'        33.2465  -42.1629    7.8445 H         4   C    0.0679
    117 H5''       31.5990  -42.7969    8.0335 H         4   C    0.0679
    118 H4'        32.5111  -42.4749   10.2131 H         4   C    0.1174
    119 H3'        30.6574  -40.1792    9.5371 H         4   C    0.0615
    120 H2'        30.9044  -39.4739   11.8245 H         4   C    0.0972
    121 H1'        33.6390  -39.8456   11.7878 H         4   C    0.2029
    122 H5         32.5457  -36.4355    7.8204 H         4   C    0.1928
    123 H6         32.6930  -38.7783    8.4622 H         4   C    0.1958
    124 H41        32.5895  -33.7490   10.3314 H         4   C    0.4234
    125 H42        32.4967  -34.1465    8.6303 H         4   C    0.4234
    126 HO2'       32.2674  -40.8362   13.2217 H         4   C    0.4186
    127 P          28.4460  -41.4040   10.4030 P.3       5   U    1.1662
    128 C5'        28.4430  -41.4930   13.0250 C.3       5   U    0.0558
    129 O5'        28.2230  -40.7470   11.8370 O.3       5   U   -0.4989
    130 C4'        28.5760  -40.5920   14.2260 C.3       5   U    0.1065
    131 O4'        29.6980  -39.6890   14.0400 O.3       5   U   -0.3548
    132 C3'        27.3990  -39.6680   14.4960 C.3       5   U    0.2022
    133 O3'        26.3380  -40.3100   15.1790 O.3       5   U   -0.5246
    134 C2'        28.0380  -38.5330   15.2860 C.3       5   U    0.0670
    135 O2'        28.2340  -38.9120   16.6410 O.3       5   U   -0.6139
    136 C1'        29.4050  -38.4310   14.6100 C.3       5   U    0.0674
    137 N1         29.4240  -37.4130   13.5390 N.am      5   U    0.0418
    138 C2         29.9770  -36.1870   13.8480 C.2       5   U    0.4687
    139 O2         30.4300  -35.9280   14.9510 O.2       5   U   -0.5477
    140 N3         29.9750  -35.2740   12.8220 N.am      5   U   -0.3549
    141 C4         29.4920  -35.4620   11.5430 C.2       5   U    0.5952
    142 O4         29.5620  -34.5400   10.7290 O.2       5   U   -0.5761
    143 C5         28.9380  -36.7590   11.3000 C.2       5   U   -0.3635
    144 C6         28.9250  -37.6670   12.2820 C.2       5   U   -0.1126
    145 OP1        28.3520  -40.3640    9.3510 O.co2     5   U   -0.7760
    146 OP2        27.6150  -42.6250   10.2730 O.co2     5   U   -0.7760
    147 H5'        27.6014  -42.1681   13.1802 H         5   U    0.0679
    148 H5''       29.3555  -42.0790   12.9151 H         5   U    0.0679
    149 H4'        28.7563  -41.2039   15.1099 H         5   U    0.1174
    150 H3'        27.0280  -39.2776   13.5484 H         5   U    0.0615
    151 H2'        27.4705  -37.6064   15.1999 H         5   U    0.0972
    152 H1'        30.1610  -38.1862   15.3561 H         5   U    0.1824
    153 H3         30.3697  -34.3669   13.0256 H         5   U    0.3154
    154 H5         28.5327  -37.0032   10.3292 H         5   U    0.1811
    155 H6         28.5049  -38.6412   12.0797 H         5   U    0.2188
    156 HO2'       28.7704  -38.2503   17.0837 H         5   U    0.4186
    157 P          24.8280  -39.8030   14.9800 P.3       6   U    1.1662
    158 C5'        24.8920  -38.5090   17.2590 C.3       6   U    0.0558
    159 O5'        24.7870  -38.4660   15.8430 O.3       6   U   -0.4989
    160 C4'        24.8750  -37.1250   17.8580 C.3       6   U    0.1065
    161 O4'        26.1050  -36.4290   17.5210 O.3       6   U   -0.3548
    162 C3'        23.7800  -36.1970   17.3570 C.3       6   U    0.2022
    163 O3'        22.5300  -36.4190   17.9840 O.3       6   U   -0.5246
    164 C2'        24.3650  -34.8190   17.6290 C.3       6   U    0.0670
    165 O2'        24.2600  -34.4900   19.0060 O.3       6   U   -0.6139
    166 C1'        25.8380  -35.0590   17.3030 C.3       6   U    0.0674
    167 N1         26.1490  -34.7410   15.8940 N.am      6   U    0.0418
    168 C2         26.6230  -33.4730   15.6290 C.2       6   U    0.4687
    169 O2         26.7800  -32.6360   16.5020 O.2       6   U   -0.5477
    170 N3         26.8980  -33.2260   14.3060 N.am      6   U   -0.3549
    171 C4         26.7530  -34.1020   13.2480 C.2       6   U    0.5952
    172 O4         27.0450  -33.7310   12.1100 O.2       6   U   -0.5761
    173 C5         26.2580  -35.3960   13.6080 C.2       6   U   -0.3635
    174 C6         25.9790  -35.6640   14.8890 C.2       6   U   -0.1126
    175 OP1        23.9410  -40.8250   15.5870 O.co2     6   U   -0.7760
    176 OP2        24.6620  -39.4800   13.5420 O.co2     6   U   -0.7760
    177 H5'        24.0527  -39.0780   17.6589 H         6   U    0.0679
    178 H5''       25.8229  -39.0054   17.5332 H         6   U    0.0679
    179 H4'        24.8005  -37.2087   18.9422 H         6   U    0.1174
    180 H3'        23.6666  -36.3291   16.2810 H         6   U    0.0615
    181 H2'        23.9238  -34.0537   16.9905 H         6   U    0.0972
    182 H1'        26.4621  -34.4548   17.9614 H         6   U    0.1824
    183 H3         27.2438  -32.3037   14.0827 H         6   U    0.3154
    184 H5         26.1106  -36.1514   12.8503 H         6   U    0.1811
    185 H6         25.6053  -36.6447   15.1438 H         6   U    0.2188
    186 HO2'       23.3392  -34.3355   19.2292 H         6   U    0.4186
    187 P          21.1680  -36.2010   17.1600 P.3       7   C    1.1662
    188 C5'        21.0220  -33.7460   18.0710 C.3       7   C    0.0558
    189 O5'        21.1230  -34.6210   16.9570 O.3       7   C   -0.4989
    190 C4'        21.3160  -32.3170   17.6820 C.3       7   C    0.1065
    191 O4'        22.6200  -32.2370   17.0480 O.3       7   C   -0.3548
    192 C3'        20.3800  -31.6960   16.6590 C.3       7   C    0.2022
    193 O3'        19.1600  -31.2500   17.2160 O.3       7   C   -0.5246
    194 C2'        21.2320  -30.5800   16.0790 C.3       7   C    0.0670
    195 O2'        21.3130  -29.4890   16.9840 O.3       7   C   -0.6139
    196 C1'        22.5950  -31.2610   16.0250 C.3       7   C    0.0066
    197 N1         22.8140  -31.9340   14.7300 N.am      7   C   -0.0484
    198 C2         23.2940  -31.1710   13.6650 C.2       7   C    0.7538
    199 O2         23.5180  -29.9650   13.8540 O.2       7   C   -0.6252
    200 N3         23.4980  -31.7650   12.4660 N.2       7   C   -0.7584
    201 C4         23.2380  -33.0660   12.3150 C.2       7   C    0.8185
    202 N4         23.4550  -33.6100   11.1150 N.pl3     7   C   -0.9530
    203 C5         22.7440  -33.8660   13.3860 C.2       7   C   -0.5215
    204 C6         22.5450  -33.2650   14.5670 C.2       7   C    0.0053
    205 OP1        21.3380  -36.8730   15.8480 O.co2     7   C   -0.7760
    206 OP2        20.0540  -36.6280   18.0390 O.co2     7   C   -0.7760
    207 H5'        20.0110  -33.8021   18.4745 H         7   C    0.0679
    208 H5''       21.7303  -34.0604   18.8375 H         7   C    0.0679
    209 H4'        21.3200  -31.6990   18.5798 H         7   C    0.1174
    210 H3'        20.1696  -32.4268   15.8781 H         7   C    0.0615
    211 H2'        20.8878  -30.2707   15.0921 H         7   C    0.0972
    212 H1'        23.3816  -30.5263   16.1967 H         7   C    0.2029
    213 H5         22.5377  -34.9175   13.2508 H         7   C    0.1928
    214 H6         22.1675  -33.8388   15.4005 H         7   C    0.1958
    215 H41        23.8049  -33.0402   10.3580 H         7   C    0.4234
    216 H42        23.2692  -34.5913   10.9643 H         7   C    0.4234
    217 HO2'       21.9787  -28.8686   16.6781 H         7   C    0.4186
    218 P          17.7900  -31.4500   16.4030 P.3       8   G    1.1662
    219 C5'        18.2970  -29.0900   15.3750 C.3       8   G    0.0558
    220 O5'        17.9620  -30.4540   15.1710 O.3       8   G   -0.4989
    221 C4'        18.6930  -28.4190   14.0850 C.3       8   G    0.1065
    222 O4'        19.8710  -29.0630   13.5330 O.3       8   G   -0.3548
    223 C3'        17.6800  -28.4980   12.9570 C.3       8   G    0.2022
    224 O3'        16.6360  -27.5560   13.0840 O.3       8   G   -0.5246
    225 C2'        18.5480  -28.2870   11.7280 C.3       8   G    0.0670
    226 O2'        18.9040  -26.9190   11.5970 O.3       8   G   -0.6139
    227 C1'        19.7950  -29.0710   12.1210 C.3       8   G    0.0191
    228 N1         21.0930  -32.4500    8.5280 N.am      8   G   -0.4787
    229 C2         21.3730  -31.1080    8.6010 C.2       8   G    0.7657
    230 N2         22.0900  -30.5980    7.5900 N.pl3     8   G   -0.9672
    231 N3         20.9820  -30.3220    9.5900 N.2       8   G   -0.6323
    232 C4         20.2740  -30.9990   10.5200 C.ar      8   G    0.1222
    233 C5         19.9380  -32.3380   10.5400 C.ar      8   G    0.1744
    234 C6         20.3660  -33.1680    9.4720 C.2       8   G    0.4770
    235 O6         20.1690  -34.3790    9.3100 O.2       8   G   -0.5597
    236 N7         19.1970  -32.6450   11.6750 N.ar      8   G   -0.5709
    237 C8         19.0980  -31.5100   12.3100 C.ar      8   G    0.1374
    238 N9         19.7270  -30.4720   11.6650 N.ar      8   G    0.0492
    239 OP1        16.6890  -30.9850   17.2830 O.co2     8   G   -0.7760
    240 OP2        17.7720  -32.8530   15.9180 O.co2     8   G   -0.7760
    241 H5'        19.1305  -29.0311   16.0750 H         8   G    0.0679
    242 H5''       17.4374  -28.5706   15.7986 H         8   G    0.0679
    243 H4'        18.9213  -27.3720   14.2847 H         8   G    0.1174
    244 H3'        17.2551  -29.5013   12.9271 H         8   G    0.0615
    245 H2'        18.0832  -28.6796   10.8236 H         8   G    0.0972
    246 H1'        20.6791  -28.5902   11.7022 H         8   G    0.2006
    247 H1         21.4421  -32.9555    7.7263 H         8   G    0.3424
    248 H8         18.5746  -31.3972   13.2479 H         8   G    0.1640
    249 H21        22.3910  -31.1949    6.8329 H         8   G    0.4364
    250 H22        22.3294  -29.6168    7.5853 H         8   G    0.4364
    251 HO2'       18.1625  -26.4289   11.2342 H         8   G    0.4186
    252 P          15.1560  -27.9350   12.6020 P.3       9   G    1.1662
    253 C5'        14.2890  -25.8390   13.9170 C.3       9   G    0.0558
    254 O5'        14.2440  -27.2460   13.7060 O.3       9   G   -0.4989
    255 C4'        12.9060  -25.2420   13.9440 C.3       9   G    0.1065
    256 O4'        12.7270  -24.4030   12.7680 O.3       9   G   -0.3548
    257 C3'        11.7670  -26.2580   13.9270 C.3       9   G    0.2022
    258 O3'        10.6840  -25.7820   14.7260 O.3       9   G   -0.5246
    259 C2'        11.3600  -26.2980   12.4550 C.3       9   G    0.0670
    260 O2'        10.0200  -26.6850   12.2230 O.3       9   G   -0.6139
    261 C1'        11.6230  -24.8590   12.0060 C.3       9   G    0.0191
    262 N1         11.0880  -22.2740    7.6100 N.am      9   G   -0.4787
    263 C2         10.5150  -22.0210    8.8330 C.2       9   G    0.7657
    264 N2          9.7060  -20.9510    8.8890 N.pl3     9   G   -0.9672
    265 N3         10.7210  -22.7590    9.9160 N.2       9   G   -0.6323
    266 C4         11.5610  -23.7920    9.6780 C.ar      9   G    0.1222
    267 C5         12.1840  -24.1270    8.4900 C.ar      9   G    0.1744
    268 C6         11.9540  -23.3280    7.3390 C.2       9   G    0.4770
    269 O6         12.4170  -23.4690    6.2020 O.2       9   G   -0.5597
    270 N7         12.9730  -25.2570    8.6480 N.ar      9   G   -0.5709
    271 C8         12.8210  -25.5830    9.9000 C.ar      9   G    0.1374
    272 N9         11.9790  -24.7400   10.5870 N.ar      9   G    0.0492
    273 OP1        15.0310  -29.4100   12.6930 O.co2     9   G   -0.7760
    274 OP2        14.9420  -27.2800   11.2870 O.co2     9   G   -0.7760
    275 H5'        14.7800  -25.6390   14.8694 H         9   G    0.0679
    276 H5''       14.8629  -25.3754   13.1146 H         9   G    0.0679
    277 H4'        12.8092  -24.6218   14.8351 H         9   G    0.1174
    278 H3'        12.1071  -27.2359   14.2678 H         9   G    0.0615
    279 H2'        12.0270  -26.9705   11.9157 H         9   G    0.0972
    280 H1'        10.7498  -24.2423   12.2188 H         9   G    0.2006
    281 H1         10.8633  -21.6472    6.8505 H         9   G    0.3424
    282 H8         13.3088  -26.4327   10.3544 H         9   G    0.1640
    283 H21         9.5516  -20.3908    8.0629 H         9   G    0.4364
    284 H22         9.2518  -20.7062    9.7572 H         9   G    0.4364
    285 HO2'       10.0035  -27.5523   11.8118 H         9   G    0.4186
    286 P          10.5380  -26.2680   16.2540 P.3      10   G    1.1662
    287 C5'        10.0940  -24.0020   17.4970 C.3      10   G    0.0558
    288 O5'         9.5720  -25.1730   16.8860 O.3      10   G   -0.4989
    289 C4'         9.2550  -22.7970   17.1680 C.3      10   G    0.1065
    290 O4'         9.5820  -22.3280   15.8340 O.3      10   G   -0.3548
    291 C3'         7.7530  -23.0370   17.1310 C.3      10   G    0.2022
    292 O3'         7.1500  -22.9580   18.4090 O.3      10   G   -0.5246
    293 C2'         7.2650  -21.9750   16.1600 C.3      10   G    0.0670
    294 O2'         7.2040  -20.7090   16.7990 O.3      10   G   -0.6139
    295 C1'         8.4100  -21.9480   15.1510 C.3      10   G    0.0191
    296 N1          7.4520  -22.6330   10.1600 N.am     10   G   -0.4787
    297 C2          7.5560  -21.4610   10.8640 C.2      10   G    0.7657
    298 N2          7.3840  -20.3350   10.1580 N.pl3    10   G   -0.9672
    299 N3          7.8060  -21.3960   12.1630 N.2      10   G   -0.6323
    300 C4          7.9480  -22.6210   12.7170 C.ar     10   G    0.1222
    301 C5          7.8630  -23.8510   12.0970 C.ar     10   G    0.1744
    302 C6          7.5960  -23.9070   10.7040 C.2      10   G    0.4770
    303 O6          7.4870  -24.9090    9.9840 O.2      10   G   -0.5597
    304 N7          8.0660  -24.8790   13.0070 N.ar     10   G   -0.5709
    305 C8          8.2680  -24.2670   14.1400 C.ar     10   G    0.1374
    306 N9          8.2000  -22.9000   14.0430 N.ar     10   G    0.0492
    307 OP1        11.8810  -26.1690   16.8730 O.co2    10   G   -0.7760
    308 OP2         9.8610  -27.5870   16.2310 O.co2    10   G   -0.7760
    309 H5'        10.1079  -24.1411   18.5780 H        10   G    0.0679
    310 H5''       11.1119  -23.8370   17.1439 H        10   G    0.0679
    311 H4'         9.4713  -22.0061   17.8862 H        10   G    0.1174
    312 H3'         7.5604  -24.0225   16.7069 H        10   G    0.0615
    313 H2'         6.3165  -22.2471   15.6970 H        10   G    0.0972
    314 H1'         8.5263  -20.9399   14.7531 H        10   G    0.2006
    315 H1          7.2560  -22.5674    9.1714 H        10   G    0.3424
    316 H8          8.4694  -24.7857   15.0656 H        10   G    0.1640
    317 H21         7.1920  -20.3843    9.1676 H        10   G    0.4364
    318 H22         7.4464  -19.4371   10.6163 H        10   G    0.4364
    319 HO2'        7.9830  -20.5896   17.3471 H        10   G    0.4186
    320 P           5.8430  -23.8280   18.7370 P.3      11   G    1.1662
    321 C5'         4.7820  -21.4370   18.6850 C.3      11   G    0.0558
    322 O5'         4.6610  -22.8220   18.4030 O.3      11   G   -0.4989
    323 C4'         3.8650  -20.6290   17.8090 C.3      11   G    0.1065
    324 O4'         4.3650  -20.6330   16.4480 O.3      11   G   -0.3548
    325 C3'         2.4470  -21.1570   17.6900 C.3      11   G    0.2022
    326 O3'         1.6220  -20.7400   18.7590 O.3      11   G   -0.5246
    327 C2'         2.0000  -20.6350   16.3320 C.3      11   G    0.0670
    328 O2'         1.6280  -19.2690   16.4220 O.3      11   G   -0.6139
    329 C1'         3.2970  -20.7240   15.5340 C.3      11   G    0.0191
    330 N1          4.2180  -22.9940   11.0390 N.am     11   G   -0.4787
    331 C2          4.1500  -21.6510   11.3430 C.2      11   G    0.7657
    332 N2          4.3580  -20.7910   10.3290 N.pl3    11   G   -0.9672
    333 N3          3.8950  -21.1820   12.5610 N.2      11   G   -0.6323
    334 C4          3.7150  -22.1690   13.4670 C.ar     11   G    0.1222
    335 C5          3.7650  -23.5330   13.2610 C.ar     11   G    0.1744
    336 C6          4.0360  -24.0280   11.9540 C.2      11   G    0.4770
    337 O6          4.1170  -25.2040   11.5690 O.2      11   G   -0.5597
    338 N7          3.5210  -24.2100   14.4490 N.ar     11   G   -0.5709
    339 C8          3.3370  -23.2670   15.3320 C.ar     11   G    0.1374
    340 N9          3.4270  -22.0030   14.8050 N.ar     11   G    0.0492
    341 OP1         5.8610  -24.1160   20.1920 O.co2    11   G   -0.7760
    342 OP2         5.8230  -24.9650   17.7850 O.co2    11   G   -0.7760
    343 H5'         5.8113  -21.1254   18.5074 H        11   G    0.0679
    344 H5''        4.5285  -21.2599   19.7302 H        11   G    0.0679
    345 H4'         3.8343  -19.6027   18.1750 H        11   G    0.1174
    346 H3'         2.4728  -22.2464   17.6629 H        11   G    0.0615
    347 H2'         1.2093  -21.2470   15.8980 H        11   G    0.0972
    348 H1'         3.3489  -19.8949   14.8284 H        11   G    0.2006
    349 H1          4.4145  -23.2469   10.0811 H        11   G    0.3424
    350 H8          3.1339  -23.4620   16.3747 H        11   G    0.1640
    351 H21         4.5522  -21.1411    9.4017 H        11   G    0.4364
    352 H22         4.3199  -19.7955   10.4953 H        11   G    0.4364
    353 HO2'        0.6818  -19.2044   16.5709 H        11   G    0.4186
    354 P           0.3840  -21.6460   19.2220 P.3      12   C    1.1662
    355 C5'        -2.0640  -21.7210   18.2900 C.3      12   C    0.0558
    356 O5'        -0.7110  -21.3340   18.1110 O.3      12   C   -0.4989
    357 C4'        -2.9990  -20.5640   18.0500 C.3      12   C    0.1065
    358 O4'        -2.8530  -20.0830   16.6990 O.3      12   C   -0.3548
    359 C3'        -4.4850  -20.8600   18.1910 C.3      12   C    0.2022
    360 O3'        -4.9120  -20.7770   19.5390 O.3      12   C   -0.5246
    361 C2'        -5.1550  -19.8210   17.2750 C.3      12   C    0.0670
    362 O2'        -5.5310  -18.6630   18.0040 O.3      12   C   -0.6139
    363 C1'        -4.0340  -19.4370   16.3020 C.3      12   C    0.0066
    364 N1         -4.3320  -19.7850   14.9030 N.am     12   C   -0.0484
    365 C2         -5.2080  -18.9440   14.2180 C.2      12   C    0.7538
    366 O2         -5.7080  -17.9920   14.8360 O.2      12   C   -0.6252
    367 N3         -5.4920  -19.2010   12.9190 N.2      12   C   -0.7584
    368 C4         -4.9180  -20.2440   12.3050 C.2      12   C    0.8185
    369 N4         -5.2170  -20.4720   11.0210 N.pl3    12   C   -0.9530
    370 C5         -4.0050  -21.1040   12.9840 C.2      12   C   -0.5215
    371 C6         -3.7310  -20.8390   14.2710 C.2      12   C    0.0053
    372 OP1        -0.0660  -21.1290   20.5360 O.co2    12   C   -0.7760
    373 OP2         0.8160  -23.0630   19.1190 O.co2    12   C   -0.7760
    374 H5'        -2.3007  -22.5205   17.5880 H        12   C    0.0679
    375 H5''       -2.2003  -22.0863   19.3079 H        12   C    0.0679
    376 H4'        -2.7383  -19.7581   18.7361 H        12   C    0.1174
    377 H3'        -4.6900  -21.8604   17.8100 H        12   C    0.0615
    378 H2'        -6.0069  -20.2500   16.7473 H        12   C    0.0972
    379 H1'        -3.8764  -18.3602   16.3641 H        12   C    0.2029
    380 H5         -3.5485  -21.9421   12.4785 H        12   C    0.1928
    381 H6         -3.0323  -21.4612   14.8105 H        12   C    0.1958
    382 H41        -5.8627  -19.8644   10.5373 H        12   C    0.4234
    383 H42        -4.7970  -21.2517   10.5354 H        12   C    0.4234
    384 HO2'       -6.2334  -18.8857   18.6193 H        12   C    0.4186
    385 P          -5.9700  -21.8260   20.1390 P.3      13   A    1.1662
    386 C5'        -4.8410  -21.3520   22.4520 C.3      13   A    0.0558
    387 O5'        -6.0270  -21.4080   21.6730 O.3      13   A   -0.4989
    388 C4'        -4.8860  -20.2340   23.4640 C.3      13   A    0.1065
    389 O4'        -4.2270  -19.0530   22.9370 O.3      13   A   -0.3548
    390 C3'        -6.2610  -19.7260   23.8490 C.3      13   A    0.2022
    391 O3'        -6.9420  -20.5810   24.7480 O.3      13   A   -0.5246
    392 C2'        -5.9400  -18.3570   24.4280 C.3      13   A    0.0670
    393 O2'        -5.3950  -18.4810   25.7350 O.3      13   A   -0.6139
    394 C1'        -4.8290  -17.8950   23.4850 C.3      13   A    0.0394
    395 N1         -6.8370  -13.3340   22.2880 N.ar     13   A   -0.7615
    396 C2         -6.4050  -13.8690   23.4370 C.ar     13   A    0.5875
    397 N3         -5.8900  -15.0740   23.6720 N.ar     13   A   -0.6997
    398 C4         -5.8310  -15.7860   22.5330 C.ar     13   A    0.3053
    399 C5         -6.2370  -15.3800   21.2720 C.ar     13   A    0.0515
    400 C6         -6.7660  -14.0790   21.1630 C.ar     13   A    0.7009
    401 N6         -7.1950  -13.5450   20.0160 N.pl3    13   A   -0.9019
    402 N7         -6.0230  -16.3920   20.3420 N.ar     13   A   -0.6073
    403 C8         -5.5040  -17.3680   21.0540 C.ar     13   A    0.2006
    404 N9         -5.3580  -17.0660   22.3870 N.ar     13   A   -0.0251
    405 OP1        -5.3730  -23.1820   20.0040 O.co2    13   A   -0.7760
    406 OP2        -7.2740  -21.5520   19.4900 O.co2    13   A   -0.7760
    407 H5'        -3.9908  -21.1929   21.7887 H        13   A    0.0679
    408 H5''       -4.7128  -22.3001   22.9742 H        13   A    0.0679
    409 H4'        -4.3645  -20.5548   24.3658 H        13   A    0.1174
    410 H3'        -6.8620  -19.6018   22.9482 H        13   A    0.0615
    411 H2'        -6.8015  -17.6897   24.4046 H        13   A    0.0972
    412 H1'        -4.0862  -17.3277   24.0458 H        13   A    0.2007
    413 H2         -6.4865  -13.2274   24.3019 H        13   A    0.0473
    414 H8         -5.2186  -18.3196   20.6304 H        13   A    0.1553
    415 H61        -8.1223  -13.9177   19.8699 H        13   A    0.4115
    416 H62        -6.6105  -13.9200   19.2826 H        13   A    0.4115
    417 HO2'       -6.0802  -18.7709   26.3417 H        13   A    0.4186
    418 P          -8.5360  -20.7540   24.6400 P.3      14   G    1.1662
    419 C5'        -9.0560  -18.4350   25.7390 C.3      14   G    0.0558
    420 O5'        -9.0560  -19.2480   24.5740 O.3      14   G   -0.4989
    421 C4'        -9.7040  -17.0960   25.4920 C.3      14   G    0.1065
    422 O4'        -8.9080  -16.3160   24.5630 O.3      14   G   -0.3548
    423 C3'       -11.0750  -17.1210   24.8480 C.3      14   G    0.2022
    424 O3'       -12.1030  -17.4510   25.7580 O.3      14   G   -0.5246
    425 C2'       -11.1840  -15.7130   24.2840 C.3      14   G    0.0670
    426 O2'       -11.4430  -14.7770   25.3190 O.3      14   G   -0.6139
    427 C1'        -9.7570  -15.4940   23.7880 C.3      14   G    0.0191
    428 N1        -10.4300  -14.0040   18.9990 N.am     14   G   -0.4787
    429 C2        -10.7050  -13.3410   20.1710 C.2      14   G    0.7657
    430 N2        -11.2310  -12.1130   20.0620 N.pl3    14   G   -0.9672
    431 N3        -10.4810  -13.8440   21.3730 N.2      14   G   -0.6323
    432 C4         -9.9490  -15.0830   21.3040 C.ar     14   G    0.1222
    433 C5         -9.6380  -15.8320   20.1920 C.ar     14   G    0.1744
    434 C6         -9.8840  -15.2810   18.9080 C.2      14   G    0.4770
    435 O6         -9.6710  -15.7900   17.8020 O.2      14   G   -0.5597
    436 N7         -9.1080  -17.0630   20.5590 N.ar     14   G   -0.5709
    437 C8         -9.1100  -17.0420   21.8660 C.ar     14   G    0.1374
    438 N9         -9.6060  -15.8670   22.3740 N.ar     14   G    0.0492
    439 OP1        -8.9930  -21.3880   25.9060 O.co2    14   G   -0.7760
    440 OP2        -8.8160  -21.4430   23.3510 O.co2    14   G   -0.7760
    441 H5'        -9.6033  -18.9507   26.5281 H        14   G    0.0679
    442 H5''       -8.0273  -18.2781   26.0634 H        14   G    0.0679
    443 H4'        -9.7694  -16.5573   26.4373 H        14   G    0.1174
    444 H3'       -11.0752  -17.8390   24.0279 H        14   G    0.0615
    445 H2'       -11.9146  -15.6479   23.4777 H        14   G    0.0972
    446 H1'        -9.4784  -14.4489   23.9231 H        14   G    0.2006
    447 H1        -10.6410  -13.5263   18.1345 H        14   G    0.3424
    448 H8         -8.7599  -17.8593   22.4790 H        14   G    0.1640
    449 H21       -11.4066  -11.7180   19.1492 H        14   G    0.4364
    450 H22       -11.4517  -11.5826   20.8927 H        14   G    0.4364
    451 HO2'      -12.3377  -14.8990   25.6448 H        14   G    0.4186
    452 P         -13.3790  -18.2760   25.2500 P.3      15   G    1.1662
    453 C5'       -14.6890  -17.2180   23.2470 C.3      15   G    0.0558
    454 O5'       -14.2900  -17.1430   24.6060 O.3      15   G   -0.4989
    455 C4'       -14.9580  -15.8500   22.6770 C.3      15   G    0.1065
    456 O4'       -13.7370  -15.3090   22.1000 O.3      15   G   -0.3548
    457 C3'       -15.9580  -15.7920   21.5310 C.3      15   G    0.2022
    458 O3'       -17.3070  -15.8020   21.9640 O.3      15   G   -0.5246
    459 C2'       -15.5510  -14.5180   20.8170 C.3      15   G    0.0670
    460 O2'       -15.9400  -13.3790   21.5690 O.3      15   G   -0.6139
    461 C1'       -14.0350  -14.6410   20.8910 C.3      15   G    0.0191
    462 N1        -13.3980  -15.1160   15.8430 N.am     15   G   -0.4787
    463 C2        -13.9780  -14.0860   16.5430 C.2      15   G    0.7657
    464 N2        -14.4470  -13.0610   15.8110 N.pl3    15   G   -0.9672
    465 N3        -14.0900  -14.0650   17.8640 N.2      15   G   -0.6323
    466 C4        -13.5660  -15.1720   18.4360 C.ar     15   G    0.1222
    467 C5        -12.9690  -16.2530   17.8230 C.ar     15   G    0.1744
    468 C6        -12.8580  -16.2640   16.4140 C.2      15   G    0.4770
    469 O6        -12.3560  -17.1380   15.7030 O.2      15   G   -0.5597
    470 N7        -12.5570  -17.1980   18.7510 N.ar     15   G   -0.5709
    471 C8        -12.9060  -16.6860   19.8980 C.ar     15   G    0.1374
    472 N9        -13.5120  -15.4570   19.7810 N.ar     15   G    0.0492
    473 OP1       -14.0420  -18.8410   26.4540 O.co2    15   G   -0.7760
    474 OP2       -12.9080  -19.2050   24.1930 O.co2    15   G   -0.7760
    475 H5'       -13.8952  -17.6926   22.6701 H        15   G    0.0679
    476 H5''      -15.5942  -17.8206   23.1728 H        15   G    0.0679
    477 H4'       -15.2955  -15.1913   23.4772 H        15   G    0.1174
    478 H3'       -15.7902  -16.6410   20.8683 H        15   G    0.0615
    479 H2'       -15.9154  -14.4824   19.7903 H        15   G    0.0972
    480 H1'       -13.5752  -13.6528   20.8824 H        15   G    0.2006
    481 H1        -13.3608  -15.0335   14.8371 H        15   G    0.3424
    482 H8        -12.7363  -17.1774   20.8446 H        15   G    0.1640
    483 H21       -14.3615  -13.0783   14.8048 H        15   G    0.4364
    484 H22       -14.8849  -12.2735   16.2671 H        15   G    0.4364
    485 HO2'      -16.8946  -13.2833   21.5351 H        15   G    0.4186
    486 P         -18.4190  -16.5870   21.1100 P.3      16   G    1.1662
    487 C5'       -19.0620  -14.3960   19.8250 C.3      16   G    0.0558
    488 O5'       -18.5270  -15.7100   19.7880 O.3      16   G   -0.4989
    489 C4'       -19.3970  -13.9030   18.4450 C.3      16   G    0.1065
    490 O4'       -18.1720  -13.6780   17.6980 O.3      16   G   -0.3548
    491 C3'       -20.1880  -14.8680   17.5720 C.3      16   G    0.2022
    492 O3'       -21.5780  -14.8500   17.8350 O.3      16   G   -0.5246
    493 C2'       -19.8230  -14.4190   16.1690 C.3      16   G    0.0670
    494 O2'       -20.5260  -13.2330   15.8240 O.3      16   G   -0.6139
    495 C1'       -18.3480  -14.0710   16.3530 C.3      16   G    0.0191
    496 N1        -16.3210  -17.1690   12.8470 N.am     16   G   -0.4787
    497 C2        -17.1580  -16.0930   12.6690 C.2      16   G    0.7657
    498 N2        -17.4980  -15.8060   11.3990 N.pl3    16   G   -0.9672
    499 N3        -17.6230  -15.3540   13.6670 N.2      16   G   -0.6323
    500 C4        -17.1810  -15.7840   14.8700 C.ar     16   G    0.1222
    501 C5        -16.3500  -16.8450   15.1500 C.ar     16   G    0.1744
    502 C6        -15.8570  -17.6260   14.0760 C.2      16   G    0.4770
    503 O6        -15.1090  -18.6060   14.1220 O.2      16   G   -0.5597
    504 N7        -16.1340  -16.9590   16.5170 N.ar     16   G   -0.5709
    505 C8        -16.8240  -15.9850   17.0400 C.ar     16   G    0.1374
    506 N9        -17.4810  -15.2330   16.0960 N.ar     16   G    0.0492
    507 OP1       -19.6900  -16.5110   21.8750 O.co2    16   G   -0.7760
    508 OP2       -17.8640  -17.9220   20.7840 O.co2    16   G   -0.7760
    509 H5'       -19.9683  -14.3988   20.4305 H        16   G    0.0679
    510 H5''      -18.3317  -13.7250   20.2772 H        16   G    0.0679
    511 H4'       -19.9440  -12.9636   18.5247 H        16   G    0.1174
    512 H3'       -19.8109  -15.8785   17.7297 H        16   G    0.0615
    513 H2'       -19.9690  -15.2107   15.4341 H        16   G    0.0972
    514 H1'       -18.0751  -13.2510   15.6887 H        16   G    0.2006
    515 H1        -16.0196  -17.6663   12.0212 H        16   G    0.3424
    516 H8        -16.8741  -15.7899   18.1010 H        16   G    0.1640
    517 H21       -17.1415  -16.3702   10.6410 H        16   G    0.4364
    518 H22       -18.1097  -15.0264   11.2039 H        16   G    0.4364
    519 HO2'      -20.1690  -12.8754   15.0077 H        16   G    0.4186
    520 P         -22.4540  -16.1770   17.6060 P.3      17   U    1.1662
    521 C5'       -23.0140  -15.3200   15.1960 C.3      17   U    0.0558
    522 O5'       -22.4570  -16.3300   16.0230 O.3      17   U   -0.4989
    523 C4'       -22.9640  -15.7150   13.7430 C.3      17   U    0.1065
    524 O4'       -21.5860  -15.7410   13.2910 O.3      17   U   -0.3548
    525 C3'       -23.4910  -17.1030   13.4160 C.3      17   U    0.2022
    526 O3'       -24.9030  -17.1450   13.2980 O.3      17   U   -0.5246
    527 C2'       -22.7590  -17.4400   12.1280 C.3      17   U    0.0670
    528 O2'       -23.3490  -16.7710   11.0250 O.3      17   U   -0.6139
    529 C1'       -21.3940  -16.8120   12.3940 C.3      17   U    0.0674
    530 N1        -20.4660  -17.7690   13.0140 N.am     17   U    0.0418
    531 C2        -19.7980  -18.6500   12.1880 C.2      17   U    0.4687
    532 O2        -19.9400  -18.6680   10.9770 O.2      17   U   -0.5477
    533 N3        -18.9550  -19.5160   12.8360 N.am     17   U   -0.3549
    534 C4        -18.7200  -19.5800   14.1930 C.2      17   U    0.5952
    535 O4        -17.9290  -20.4170   14.6310 O.2      17   U   -0.5761
    536 C5        -19.4510  -18.6320   14.9760 C.2      17   U   -0.3635
    537 C6        -20.2810  -17.7790   14.3730 C.2      17   U   -0.1126
    538 OP1       -21.7090  -17.3020   18.2180 O.co2    17   U   -0.7760
    539 OP2       -23.8250  -15.8860   18.0880 O.co2    17   U   -0.7760
    540 H5'       -24.0525  -15.1575   15.4844 H        17   U    0.0679
    541 H5''      -22.4548  -14.3947   15.3349 H        17   U    0.0679
    542 H4'       -23.5152  -14.9797   13.1569 H        17   U    0.1174
    543 H3'       -23.1775  -17.7965   14.1963 H        17   U    0.0615
    544 H2'       -22.6902  -18.5156   11.9655 H        17   U    0.0972
    545 H1'       -20.9711  -16.4401   11.4608 H        17   U    0.1824
    546 H3        -18.4538  -20.1760   12.2587 H        17   U    0.3154
    547 H5        -19.3317  -18.6069   16.0491 H        17   U    0.1811
    548 H6        -20.8274  -17.0701   14.9774 H        17   U    0.2188
    549 HO2'      -24.2105  -17.1530   10.8420 H        17   U    0.4186
    550 P         -25.7520  -18.2330   14.1220 P.3      18   G    1.1662
    551 C5'       -25.6260  -19.5430   11.8600 C.3      18   G    0.0558
    552 O5'       -25.5310  -19.5610   13.2750 O.3      18   G   -0.4989
    553 C4'       -24.8440  -20.6710   11.2400 C.3      18   G    0.1065
    554 O4'       -23.4200  -20.4370   11.4030 O.3      18   G   -0.3548
    555 C3'       -25.0570  -22.0420   11.8530 C.3      18   G    0.2022
    556 O3'       -26.2510  -22.6660   11.4180 O.3      18   G   -0.5246
    557 C2'       -23.7920  -22.7830   11.4450 C.3      18   G    0.0670
    558 O2'       -23.8610  -23.1900   10.0880 O.3      18   G   -0.6139
    559 C1'       -22.7480  -21.6710   11.5630 C.3      18   G    0.0191
    560 N1        -19.0040  -23.6770   14.3320 N.am     18   G   -0.4787
    561 C2        -19.3490  -23.9090   13.0250 C.2      18   G    0.7657
    562 N2        -18.5990  -24.7960   12.3590 N.pl3    18   G   -0.9672
    563 N3        -20.3550  -23.3140   12.4120 N.2      18   G   -0.6323
    564 C4        -21.0000  -22.4520   13.2260 C.ar     18   G    0.1222
    565 C5        -20.7390  -22.1470   14.5450 C.ar     18   G    0.1744
    566 C6        -19.6540  -22.7950   15.1910 C.2      18   G    0.4770
    567 O6        -19.2590  -22.6610   16.3580 O.2      18   G   -0.5597
    568 N7        -21.6420  -21.2070   15.0230 N.ar     18   G   -0.5709
    569 C8        -22.4220  -20.9620   14.0040 C.ar     18   G    0.1374
    570 N9        -22.0860  -21.6820   12.8820 N.ar     18   G    0.0492
    571 OP1       -25.1120  -18.3700   15.4540 O.co2    18   G   -0.7760
    572 OP2       -27.1750  -17.8200   14.0530 O.co2    18   G   -0.7760
    573 H5'       -26.6734  -19.6393   11.5742 H        18   G    0.0679
    574 H5''      -25.2400  -18.5939   11.4881 H        18   G    0.0679
    575 H4'       -25.0753  -20.7192   10.1759 H        18   G    0.1174
    576 H3'       -25.0798  -21.9471   12.9386 H        18   G    0.0615
    577 H2'       -23.5756  -23.6183   12.1110 H        18   G    0.0972
    578 H1'       -22.0009  -21.7855   10.7776 H        18   G    0.2006
    579 H1        -18.2145  -24.1873   14.7012 H        18   G    0.3424
    580 H8        -23.2464  -20.2652   14.0394 H        18   G    0.1640
    581 H21       -17.8273  -25.2539   12.8226 H        18   G    0.4364
    582 H22       -18.8049  -25.0071   11.3930 H        18   G    0.4364
    583 HO2'      -22.9916  -23.1183    9.6873 H        18   G    0.4186
    584 P         -27.1120  -23.5560   12.4430 P.3      19   A    1.1662
    585 C5'       -26.4770  -25.7490   13.7300 C.3      19   A    0.0558
    586 O5'       -26.1100  -24.7390   12.8050 O.3      19   A   -0.4989
    587 C4'       -25.7970  -27.0540   13.4100 C.3      19   A    0.1065
    588 O4'       -26.2800  -27.5580   12.1410 O.3      19   A   -0.3548
    589 C3'       -24.2860  -26.9880   13.2390 C.3      19   A    0.2022
    590 O3'       -23.5910  -27.0260   14.4710 O.3      19   A   -0.5246
    591 C2'       -23.9950  -28.1780   12.3340 C.3      19   A    0.0670
    592 O2'       -23.9790  -29.3860   13.0800 O.3      19   A   -0.6139
    593 C1'       -25.2290  -28.1800   11.4330 C.3      19   A    0.0394
    594 N1        -23.3910  -28.2930    6.6240 N.ar     19   A   -0.7615
    595 C2        -23.4430  -29.2210    7.5900 C.ar     19   A    0.5875
    596 N3        -23.9340  -29.1290    8.8230 N.ar     19   A   -0.6997
    597 C4        -24.4280  -27.8990    9.0390 C.ar     19   A    0.3053
    598 C5        -24.4470  -26.8370    8.1510 C.ar     19   A    0.0515
    599 C6        -23.8940  -27.0630    6.8770 C.ar     19   A    0.7009
    600 N6        -23.8420  -26.1380    5.9140 N.pl3    19   A   -0.9019
    601 N7        -25.0350  -25.7190    8.7300 N.ar     19   A   -0.6073
    602 C8        -25.3530  -26.1210    9.9360 C.ar     19   A    0.2006
    603 N9        -25.0070  -27.4270   10.1880 N.ar     19   A   -0.0251
    604 OP1       -28.2750  -24.0900   11.6890 O.co2    19   A   -0.7760
    605 OP2       -27.3620  -22.7210   13.6450 O.co2    19   A   -0.7760
    606 H5'       -26.1882  -25.4344   14.7329 H        19   A    0.0679
    607 H5''      -27.5573  -25.8903   13.6961 H        19   A    0.0679
    608 H4'       -26.0334  -27.7769   14.1908 H        19   A    0.1174
    609 H3'       -24.0273  -26.0692   12.7128 H        19   A    0.0615
    610 H2'       -23.0761  -28.0401   11.7642 H        19   A    0.0972
    611 H1'       -25.5061  -29.2069   11.1948 H        19   A    0.2007
    612 H2        -23.0259  -30.1826    7.3296 H        19   A    0.0473
    613 H8        -25.8401  -25.4870   10.6621 H        19   A    0.1553
    614 H61       -23.4322  -26.3634    5.0188 H        19   A    0.4115
    615 H62       -24.2125  -25.2134    6.0813 H        19   A    0.4115
    616 HO2'      -23.2080  -29.3993   13.6518 H        19   A    0.4186
    617 P         -22.4160  -25.9730   14.7650 P.3      20   A    1.1662
    618 C5'       -20.7490  -27.9550   14.3230 C.3      20   A    0.0558
    619 O5'       -21.1660  -26.6280   14.0270 O.3      20   A   -0.4989
    620 C4'       -20.0000  -28.5670   13.1650 C.3      20   A    0.1065
    621 O4'       -20.8670  -28.6250   12.0050 O.3      20   A   -0.3548
    622 C3'       -18.7740  -27.7990   12.6830 C.3      20   A    0.2022
    623 O3'       -17.6080  -28.0920   13.4390 O.3      20   A   -0.5246
    624 C2'       -18.6660  -28.2080   11.2180 C.3      20   A    0.0670
    625 O2'       -18.0440  -29.4780   11.0960 O.3      20   A   -0.6139
    626 C1'       -20.1340  -28.3540   10.8310 C.3      20   A    0.0394
    627 N1        -20.9020  -25.6990    6.4650 N.ar     20   A   -0.7615
    628 C2        -20.3030  -26.8710    6.7090 C.ar     20   A    0.5875
    629 N3        -20.1320  -27.5070    7.8690 N.ar     20   A   -0.6997
    630 C4        -20.6670  -26.8030    8.8830 C.ar     20   A    0.3053
    631 C5        -21.3120  -25.5830    8.7900 C.ar     20   A    0.0515
    632 C6        -21.4270  -25.0170    7.5070 C.ar     20   A    0.7009
    633 N6        -22.0260  -23.8490    7.2710 N.pl3    20   A   -0.9019
    634 N7        -21.7330  -25.1500   10.0410 N.ar     20   A   -0.6073
    635 C8        -21.3390  -26.1040   10.8480 C.ar     20   A    0.2006
    636 N9        -20.6780  -27.1300   10.2160 N.ar     20   A   -0.0251
    637 OP1       -22.1930  -25.9620   16.2320 O.co2    20   A   -0.7760
    638 OP2       -22.7900  -24.7050   14.0920 O.co2    20   A   -0.7760
    639 H5'       -21.6276  -28.5632   14.5383 H        20   A    0.0679
    640 H5''      -20.1014  -27.9393   15.1996 H        20   A    0.0679
    641 H4'       -19.7000  -29.5799   13.4334 H        20   A    0.1174
    642 H3'       -18.9774  -26.7297   12.7408 H        20   A    0.0615
    643 H2'       -18.1614  -27.4490   10.6201 H        20   A    0.0972
    644 H1'       -20.2435  -29.1868   10.1363 H        20   A    0.2007
    645 H2        -19.9003  -27.3739    5.8422 H        20   A    0.0473
    646 H8        -21.5174  -26.0858   11.9130 H        20   A    0.1553
    647 H61       -22.6293  -23.9176    6.4639 H        20   A    0.4115
    648 H62       -21.3352  -23.1261    7.1287 H        20   A    0.4115
    649 HO2'      -17.1173  -29.4054   11.3361 H        20   A    0.4186
    650 P         -16.5800  -26.9230   13.8400 P.3      21   A    1.1662
    651 C5'       -15.6330  -26.8630   11.3950 C.3      21   A    0.0558
    652 O5'       -16.3100  -26.1920   12.4520 O.3      21   A   -0.4989
    653 C4'       -14.4360  -26.0800   10.9060 C.3      21   A    0.1065
    654 O4'       -14.8740  -25.0880    9.9430 O.3      21   A   -0.3548
    655 C3'       -13.6570  -25.3350   11.9880 C.3      21   A    0.2022
    656 O3'       -12.2590  -25.5290   11.7980 O.3      21   A   -0.5246
    657 C2'       -14.0170  -23.8640   11.7620 C.3      21   A    0.0670
    658 O2'       -12.9850  -22.9530   12.0870 O.3      21   A   -0.6139
    659 C1'       -14.3520  -23.8180   10.2730 C.3      21   A    0.0394
    660 N1        -16.2550  -20.5260    6.7320 N.ar     21   A   -0.7615
    661 C2        -15.2200  -21.3770    6.6910 C.ar     21   A    0.5875
    662 N3        -14.7700  -22.2080    7.6330 N.ar     21   A   -0.6997
    663 C4        -15.5120  -22.1150    8.7520 C.ar     21   A    0.3053
    664 C5        -16.6070  -21.2850    8.9390 C.ar     21   A    0.0515
    665 C6        -16.9840  -20.4540    7.8680 C.ar     21   A    0.7009
    666 N6        -18.0170  -19.6090    7.9120 N.pl3    21   A   -0.9019
    667 N7        -17.1340  -21.4470   10.2120 N.ar     21   A   -0.6073
    668 C8        -16.3630  -22.3560   10.7550 C.ar     21   A    0.2006
    669 N9        -15.3620  -22.8110    9.9330 N.ar     21   A   -0.0251
    670 OP1       -15.3350  -27.5830   14.3150 O.co2    21   A   -0.7760
    671 OP2       -17.2960  -26.0070   14.7610 O.co2    21   A   -0.7760
    672 H5'       -16.3259  -27.0022   10.5652 H        21   A    0.0679
    673 H5''      -15.3000  -27.8389   11.7483 H        21   A    0.0679
    674 H4'       -13.7558  -26.7688   10.4050 H        21   A    0.1174
    675 H3'       -13.9631  -25.6617   12.9818 H        21   A    0.0615
    676 H2'       -14.9085  -23.6188   12.3392 H        21   A    0.0972
    677 H1'       -13.4439  -23.6346    9.6987 H        21   A    0.2007
    678 H2        -14.6710  -21.3922    5.7611 H        21   A    0.0473
    679 H8        -16.5028  -22.7168   11.7633 H        21   A    0.1553
    680 H61       -18.2382  -19.0395    7.1078 H        21   A    0.4115
    681 H62       -18.5772  -19.5394    8.7495 H        21   A    0.4115
    682 HO2'      -13.0665  -22.6926   13.0074 H        21   A    0.4186
    683 P         -11.4380  -26.4420   12.8340 P.3      22   U    1.1662
    684 C5'       -10.8270  -24.3200   14.2530 C.3      22   U    0.0558
    685 O5'       -10.3910  -25.4180   13.4600 O.3      22   U   -0.4989
    686 C4'        -9.7680  -23.2480   14.3550 C.3      22   U    0.1065
    687 O4'        -8.8080  -23.6050   15.3920 O.3      22   U   -0.3548
    688 C3'        -8.9590  -23.0110   13.0840 C.3      22   U    0.2022
    689 O3'        -8.6830  -21.6200   12.9510 O.3      22   U   -0.5246
    690 C2'        -7.6620  -23.7730   13.3540 C.3      22   U    0.0670
    691 O2'        -6.5410  -23.3030   12.6400 O.3      22   U   -0.6139
    692 C1'        -7.4970  -23.5850   14.8570 C.3      22   U    0.0674
    693 N1         -6.7130  -24.6560   15.5110 N.am     22   U    0.0418
    694 C2         -5.5010  -24.3300   16.0820 C.2      22   U    0.4687
    695 O2         -5.0520  -23.2010   16.0830 O.2      22   U   -0.5477
    696 N3         -4.8290  -25.3760   16.6600 N.am     22   U   -0.3549
    697 C4         -5.2370  -26.6920   16.7220 C.2      22   U    0.5952
    698 O4         -4.5250  -27.5280   17.2770 O.2      22   U   -0.5761
    699 C5         -6.5000  -26.9500   16.1060 C.2      22   U   -0.3635
    700 C6         -7.1760  -25.9490   15.5340 C.2      22   U   -0.1126
    701 OP1       -10.7250  -27.4730   12.0370 O.co2    22   U   -0.7760
    702 OP2       -12.3980  -26.8880   13.8780 O.co2    22   U   -0.7760
    703 H5'       -11.7211  -23.8910   13.8006 H        22   U    0.0679
    704 H5''      -11.0701  -24.6773   15.2537 H        22   U    0.0679
    705 H4'       -10.2498  -22.3120   14.6375 H        22   U    0.1174
    706 H3'        -9.4741  -23.4004   12.2058 H        22   U    0.0615
    707 H2'        -7.8120  -24.8304   13.1363 H        22   U    0.0972
    708 H1'        -7.0345  -22.6184   15.0567 H        22   U    0.1824
    709 H3         -3.9393  -25.1595   17.0863 H        22   U    0.3154
    710 H5         -6.9070  -27.9504   16.1026 H        22   U    0.1811
    711 H6         -8.1268  -26.1660   15.0701 H        22   U    0.2188
    712 HO2'       -6.6805  -23.4375   11.6998 H        22   U    0.4186
    713 P          -9.6600  -20.6970   12.0740 P.3      23   U    1.1662
    714 C5'        -8.1220  -21.2140   10.0060 C.3      23   U    0.0558
    715 O5'        -9.4180  -21.2410   10.5950 O.3      23   U   -0.4989
    716 C4'        -8.1930  -21.2460    8.5000 C.3      23   U    0.1065
    717 O4'        -8.3390  -22.6230    8.0540 O.3      23   U   -0.3548
    718 C3'        -9.3590  -20.4700    7.8840 C.3      23   U    0.2022
    719 O3'        -8.9330  -19.8640    6.6650 O.3      23   U   -0.5246
    720 C2'       -10.3680  -21.5710    7.5740 C.3      23   U    0.0670
    721 O2'       -11.2840  -21.2570    6.5470 O.3      23   U   -0.6139
    722 C1'        -9.4440  -22.7170    7.1800 C.3      23   U    0.0674
    723 N1        -10.0430  -24.0550    7.3230 N.am     23   U    0.0418
    724 C2        -10.1080  -24.8380    6.1820 C.2      23   U    0.4687
    725 O2         -9.6940  -24.4660    5.0970 O.2      23   U   -0.5477
    726 N3        -10.6750  -26.0740    6.3570 N.am     23   U   -0.3549
    727 C4        -11.1740  -26.5930    7.5340 C.2      23   U    0.5952
    728 O4        -11.6570  -27.7280    7.5370 O.2      23   U   -0.5761
    729 C5        -11.0710  -25.7170    8.6650 C.2      23   U   -0.3635
    730 C6        -10.5220  -24.5040    8.5270 C.2      23   U   -0.1126
    731 OP1       -11.0480  -21.0030   12.5010 O.co2    23   U   -0.7760
    732 OP2        -9.1670  -19.2990   12.1870 O.co2    23   U   -0.7760
    733 H5'        -7.6121  -20.3019   10.3162 H        23   U    0.0679
    734 H5''       -7.5538  -22.0764   10.3546 H        23   U    0.0679
    735 H4'        -7.2606  -20.8480    8.0996 H        23   U    0.1174
    736 H3'        -9.7655  -19.7350    8.5787 H        23   U    0.0615
    737 H2'       -10.9118  -21.8348    8.4811 H        23   U    0.0972
    738 H1'        -9.1081  -22.5767    6.1526 H        23   U    0.1824
    739 H3        -10.7334  -26.6654    5.5403 H        23   U    0.3154
    740 H5        -11.4370  -26.0366    9.6295 H        23   U    0.1811
    741 H6        -10.4542  -23.8590    9.3906 H        23   U    0.2188
    742 HO2'      -11.9837  -21.9141    6.5303 H        23   U    0.4186
    743 P          -8.8140  -18.2660    6.5570 P.3      24   C    1.1662
    744 C5'       -11.0300  -17.8870    5.2110 C.3      24   C    0.0558
    745 O5'       -10.3330  -17.8090    6.4480 O.3      24   C   -0.4989
    746 C4'       -12.4290  -17.3360    5.3340 C.3      24   C    0.1065
    747 O4'       -13.2960  -18.3290    5.9330 O.3      24   C   -0.3548
    748 C3'       -12.5800  -16.1120    6.2230 C.3      24   C    0.2022
    749 O3'       -12.2700  -14.9070    5.5470 O.3      24   C   -0.5246
    750 C2'       -14.0290  -16.1940    6.6860 C.3      24   C    0.0670
    751 O2'       -14.8990  -15.6580    5.7030 O.3      24   C   -0.6139
    752 C1'       -14.2510  -17.7070    6.7590 C.3      24   C    0.0066
    753 N1        -14.0970  -18.2340    8.1280 N.am     24   C   -0.0484
    754 C2        -15.1220  -18.0200    9.0520 C.2      24   C    0.7538
    755 O2        -16.1200  -17.3730    8.6980 O.2      24   C   -0.6252
    756 N3        -14.9900  -18.5110   10.3050 N.2      24   C   -0.7584
    757 C4        -13.8950  -19.2000   10.6360 C.2      24   C    0.8185
    758 N4        -13.8100  -19.6680   11.8820 N.pl3    24   C   -0.9530
    759 C5        -12.8400  -19.4410    9.7090 C.2      24   C   -0.5215
    760 C6        -12.9840  -18.9460    8.4740 C.2      24   C    0.0053
    761 OP1        -8.2310  -17.7810    7.8320 O.co2    24   C   -0.7760
    762 OP2        -8.1040  -17.9660    5.2900 O.co2    24   C   -0.7760
    763 H5'       -10.4869  -17.3122    4.4608 H        24   C    0.0679
    764 H5''      -11.0823  -18.9288    4.8948 H        24   C    0.0679
    765 H4'       -12.8024  -17.0967    4.3383 H        24   C    0.1174
    766 H3'       -11.9233  -16.2154    7.0868 H        24   C    0.0615
    767 H2'       -14.1714  -15.7170    7.6557 H        24   C    0.0972
    768 H1'       -15.2506  -17.9420    6.3933 H        24   C    0.2029
    769 H5        -11.9603  -20.0002    9.9915 H        24   C    0.1928
    770 H6        -12.2090  -19.1119    7.7404 H        24   C    0.1958
    771 H41       -14.5586  -19.4965   12.5380 H        24   C    0.4234
    772 H42       -12.9971  -20.1939   12.1696 H        24   C    0.4234
    773 HO2'      -14.7712  -14.7083    5.6455 H        24   C    0.4186
    774 P         -11.3960  -13.7770    6.2750 P.3      25   C    1.1662
    775 C5'       -13.5970  -12.6330    7.1110 C.3      25   C    0.0558
    776 O5'       -12.3730  -13.2700    7.4270 O.3      25   C   -0.4989
    777 C4'       -14.3310  -12.2030    8.3550 C.3      25   C    0.1065
    778 O4'       -14.9730  -13.3500    8.9690 O.3      25   C   -0.3548
    779 C3'       -13.4790  -11.6240    9.4740 C.3      25   C    0.2022
    780 O3'       -13.1260  -10.2710    9.2650 O.3      25   C   -0.5246
    781 C2'       -14.3650  -11.8400   10.6890 C.3      25   C    0.0670
    782 O2'       -15.4300  -10.9010   10.7040 O.3      25   C   -0.6139
    783 C1'       -14.9440  -13.2160   10.3760 C.3      25   C    0.0066
    784 N1        -14.1040  -14.2950   10.9210 N.am     25   C   -0.0484
    785 C2        -14.2380  -14.6850   12.2580 C.2      25   C    0.7538
    786 O2        -15.0750  -14.1160   12.9780 O.2      25   C   -0.6252
    787 N3        -13.4460  -15.6780   12.7260 N.2      25   C   -0.7584
    788 C4        -12.5580  -16.2650   11.9180 C.2      25   C    0.8185
    789 N4        -11.7950  -17.2390   12.4180 N.pl3    25   C   -0.9530
    790 C5        -12.4050  -15.8800   10.5570 C.2      25   C   -0.5215
    791 C6        -13.1900  -14.8990   10.1060 C.2      25   C    0.0053
    792 OP1       -11.1710  -12.6910    5.2880 O.co2    25   C   -0.7760
    793 OP2       -10.2190  -14.4550    6.8710 O.co2    25   C   -0.7760
    794 H5'       -13.3918  -11.7546    6.4991 H        25   C    0.0679
    795 H5''      -14.2240  -13.3233    6.5466 H        25   C    0.0679
    796 H4'       -15.0951  -11.4757    8.0805 H        25   C    0.1174
    797 H3'       -12.5723  -12.2196    9.5801 H        25   C    0.0615
    798 H2'       -13.7971  -11.8338   11.6194 H        25   C    0.0972
    799 H1'       -15.9545  -13.2936   10.7772 H        25   C    0.2029
    800 H5        -11.6829  -16.3620    9.9146 H        25   C    0.1928
    801 H6        -13.1006  -14.5775    9.0788 H        25   C    0.1958
    802 H41       -11.8981  -17.5158   13.3838 H        25   C    0.4234
    803 H42       -11.1145  -17.6993   11.8306 H        25   C    0.4234
    804 HO2'      -15.0840  -10.0272   10.8998 H        25   C    0.4186
    805 P         -11.7060   -9.7220    9.7780 P.3      26   C    1.1662
    806 C5'       -12.8700   -8.7490   11.9050 C.3      26   C    0.0558
    807 O5'       -11.9110   -9.6360   11.3530 O.3      26   C   -0.4989
    808 C4'       -12.7820   -8.6940   13.4070 C.3      26   C    0.1065
    809 O4'       -13.2710   -9.9330   13.9790 O.3      26   C   -0.3548
    810 C3'       -11.3880   -8.5480   13.9930 C.3      26   C    0.2022
    811 O3'       -10.8980   -7.2210   13.9340 O.3      26   C   -0.5246
    812 C2'       -11.5810   -9.0690   15.4090 C.3      26   C    0.0670
    813 O2'       -12.2090   -8.0880   16.2210 O.3      26   C   -0.6139
    814 C1'       -12.5740  -10.2110   15.1740 C.3      26   C    0.0066
    815 N1        -11.8930  -11.5190   15.0320 N.am     26   C   -0.0484
    816 C2        -11.4670  -12.1660   16.1990 C.2      26   C    0.7538
    817 O2        -11.6740  -11.6210   17.2970 O.2      26   C   -0.6252
    818 N3        -10.8390  -13.3600   16.1030 N.2      26   C   -0.7584
    819 C4        -10.6370  -13.9080   14.9060 C.2      26   C    0.8185
    820 N4        -10.0120  -15.0870   14.8680 N.pl3    26   C   -0.9530
    821 C5        -11.0630  -13.2750   13.7000 C.2      26   C   -0.5215
    822 C6        -11.6830  -12.0900   13.8050 C.2      26   C    0.0053
    823 OP1       -10.6970  -10.7570    9.4530 O.co2    26   C   -0.7760
    824 OP2       -11.5390   -8.3600    9.2180 O.co2    26   C   -0.7760
    825 H5'       -12.6976   -7.7499   11.5049 H        26   C    0.0679
    826 H5''      -13.8681   -9.0802   11.6185 H        26   C    0.0679
    827 H4'       -13.4020   -7.8724   13.7657 H        26   C    0.1174
    828 H3'       -10.7036   -9.2070   13.4587 H        26   C    0.0615
    829 H2'       -10.6468   -9.4231   15.8449 H        26   C    0.0972
    830 H1'       -13.2791  -10.2564   16.0040 H        26   C    0.2029
    831 H5        -10.8923  -13.7336   12.7372 H        26   C    0.1928
    832 H6        -12.0197  -11.5815   12.9136 H        26   C    0.1958
    833 H41        -9.7133  -15.5281   15.7261 H        26   C    0.4234
    834 H42        -9.8379  -15.5379   13.9812 H        26   C    0.4234
    835 HO2'      -11.5989   -7.3637   16.3782 H        26   C    0.4186
    836 P          -9.3410   -6.9210   14.1990 P.3      27   G    1.1662
    837 C5'        -7.9080   -7.4110   16.3370 C.3      27   G    0.0558
    838 O5'        -9.1890   -7.2250   15.7540 O.3      27   G   -0.4989
    839 C4'        -7.9310   -8.4930   17.3890 C.3      27   G    0.1065
    840 O4'        -8.8670   -9.5370   17.0010 O.3      27   G   -0.3548
    841 C3'        -6.6150   -9.2270   17.6070 C.3      27   G    0.2022
    842 O3'        -5.7300   -8.5400   18.4720 O.3      27   G   -0.5246
    843 C2'        -7.0680  -10.5780   18.1370 C.3      27   G    0.0670
    844 O2'        -7.4250  -10.4860   19.5070 O.3      27   G   -0.6139
    845 C1'        -8.3360  -10.8050   17.3160 C.3      27   G    0.0191
    846 N1         -6.7250  -15.1000   15.0840 N.am     27   G   -0.4787
    847 C2         -6.8890  -14.8240   16.4190 C.2      27   G    0.7657
    848 N2         -6.5860  -15.8080   17.2740 N.pl3    27   G   -0.9672
    849 N3         -7.3190  -13.6680   16.8880 N.2      27   G   -0.6323
    850 C4         -7.5800  -12.7880   15.8990 C.ar     27   G    0.1222
    851 C5         -7.4480  -12.9640   14.5380 C.ar     27   G    0.1744
    852 C6         -6.9860  -14.2110   14.0460 C.2      27   G    0.4770
    853 O6         -6.8070  -14.5500   12.8680 O.2      27   G   -0.5597
    854 N7         -7.8160  -11.8160   13.8520 N.ar     27   G   -0.5709
    855 C8         -8.1580  -10.9770   14.7910 C.ar     27   G    0.1374
    856 N9         -8.0430  -11.5030   16.0530 N.ar     27   G    0.0492
    857 OP1        -9.1240   -5.4770   13.9420 O.co2    27   G   -0.7760
    858 OP2        -8.5630   -7.9110   13.4110 O.co2    27   G   -0.7760
    859 H5'        -7.2009   -7.6913   15.5562 H        27   G    0.0679
    860 H5''       -7.5840   -6.4757   16.7935 H        27   G    0.0679
    861 H4'        -8.2558   -8.0600   18.3351 H        27   G    0.1174
    862 H3'        -6.1266   -9.3710   16.6432 H        27   G    0.0615
    863 H2'        -6.3241  -11.3550   17.9611 H        27   G    0.0972
    864 H1'        -9.0587  -11.3768   17.8981 H        27   G    0.2006
    865 H1         -6.3888  -16.0196   14.8363 H        27   G    0.3424
    866 H8         -8.4972   -9.9706   14.5947 H        27   G    0.1640
    867 H21        -6.2561  -16.6965   16.9250 H        27   G    0.4364
    868 H22        -6.6872  -15.6621   18.2683 H        27   G    0.4364
    869 HO2'       -7.2881  -11.3360   19.9316 H        27   G    0.4186
    870 P          -4.1530   -8.5150   18.1580 P.3      28   A    1.1662
    871 C5'        -4.0240  -10.5230   19.8290 C.3      28   A    0.0558
    872 O5'        -3.6880   -9.9820   18.5620 O.3      28   A   -0.4989
    873 C4'        -3.5050  -11.9290   19.9910 C.3      28   A    0.1065
    874 O4'        -4.3580  -12.8620   19.2780 O.3      28   A   -0.3548
    875 C3'        -2.1220  -12.2010   19.4250 C.3      28   A    0.2022
    876 O3'        -1.0770  -11.7370   20.2580 O.3      28   A   -0.5246
    877 C2'        -2.1420  -13.7130   19.2490 C.3      28   A    0.0670
    878 O2'        -1.9780  -14.3650   20.5000 O.3      28   A   -0.6139
    879 C1'        -3.5800  -13.9310   18.7760 C.3      28   A    0.0394
    880 N1         -2.4550  -16.3830   14.3570 N.ar     28   A   -0.7615
    881 C2         -2.1890  -16.6730   15.6350 C.ar     28   A    0.5875
    882 N3         -2.5070  -16.0000   16.7400 N.ar     28   A   -0.6997
    883 C4         -3.1920  -14.8840   16.4370 C.ar     28   A    0.3053
    884 C5         -3.5370  -14.4530   15.1700 C.ar     28   A    0.0515
    885 C6         -3.1430  -15.2540   14.0870 C.ar     28   A    0.7009
    886 N6         -3.4120  -14.9580   12.8140 N.pl3    28   A   -0.9019
    887 N7         -4.2410  -13.2610   15.2330 N.ar     28   A   -0.6073
    888 C8         -4.3020  -12.9960   16.5150 C.ar     28   A    0.2006
    889 N9         -3.6850  -13.9340   17.3030 N.ar     28   A   -0.0251
    890 OP1        -3.5380   -7.5210   19.0740 O.co2    28   A   -0.7760
    891 OP2        -4.0020   -8.3220   16.6950 O.co2    28   A   -0.7760
    892 H5'        -3.5906   -9.8949   20.6072 H        28   A    0.0679
    893 H5''       -5.1085  -10.5285   19.9381 H        28   A    0.0679
    894 H4'        -3.5092  -12.1864   21.0502 H        28   A    0.1174
    895 H3'        -2.0365  -11.7281   18.4467 H        28   A    0.0615
    896 H2'        -1.4126  -14.0497   18.5124 H        28   A    0.0972
    897 H1'        -3.9562  -14.8745   19.1715 H        28   A    0.2007
    898 H2         -1.6354  -17.5864   15.7948 H        28   A    0.0473
    899 H8         -4.7925  -12.1204   16.9140 H        28   A    0.1553
    900 H61        -3.1020  -15.5739   12.0760 H        28   A    0.4115
    901 H62        -3.9256  -14.1181   12.5885 H        28   A    0.4115
    902 HO2'       -2.1510  -15.3036   20.3965 H        28   A    0.4186
    903 P           0.3050  -11.2310   19.6100 P.3      29   C    1.1662
    904 C5'         1.2500  -13.6320   20.0550 C.3      29   C    0.0558
    905 O5'         0.9850  -12.5900   19.1280 O.3      29   C   -0.4989
    906 C4'         1.4950  -14.9520   19.3660 C.3      29   C    0.1065
    907 O4'         0.4070  -15.2520   18.4530 O.3      29   C   -0.3548
    908 C3'         2.7280  -15.0360   18.4860 C.3      29   C    0.2022
    909 O3'         3.9200  -15.2090   19.2230 O.3      29   C   -0.5246
    910 C2'         2.3960  -16.2110   17.5850 C.3      29   C    0.0670
    911 O2'         2.5640  -17.4370   18.2830 O.3      29   C   -0.6139
    912 C1'         0.9010  -15.9890   17.3510 C.3      29   C    0.0066
    913 N1          0.6450  -15.2160   16.1210 N.am     29   C   -0.0484
    914 C2          0.7960  -15.8410   14.8830 C.2      29   C    0.7538
    915 O2          1.1380  -17.0280   14.8450 O.2      29   C   -0.6252
    916 N3          0.5640  -15.1370   13.7570 N.2      29   C   -0.7584
    917 C4          0.1920  -13.8610   13.8380 C.2      29   C    0.8185
    918 N4         -0.0290  -13.2050   12.6970 N.pl3    29   C   -0.9530
    919 C5          0.0300  -13.1960   15.0850 C.2      29   C   -0.5215
    920 C6          0.2670  -13.9070   16.1920 C.2      29   C    0.0053
    921 OP1        -0.0410  -10.3920   18.4360 O.co2    29   C   -0.7760
    922 OP2         1.1030  -10.6300   20.7050 O.co2    29   C   -0.7760
    923 H5'         2.1336  -13.3693   20.6366 H        29   C    0.0679
    924 H5''        0.3987  -13.7345   20.7280 H        29   C    0.0679
    925 H4'         1.5475  -15.7374   20.1200 H        29   C    0.1174
    926 H3'         2.8041  -14.1303   17.8843 H        29   C    0.0615
    927 H2'         2.9642  -16.1877   16.6551 H        29   C    0.0972
    928 H1'         0.3911  -16.9507   17.2936 H        29   C    0.2029
    929 H5         -0.2718  -12.1602   15.1353 H        29   C    0.1928
    930 H6          0.1574  -13.4375   17.1584 H        29   C    0.1958
    931 H41         0.0868  -13.6778   11.8121 H        29   C    0.4234
    932 H42        -0.3120  -12.2357   12.7184 H        29   C    0.4234
    933 HO2'        2.3897  -18.1706   17.6888 H        29   C    0.4186
    934 P           5.3270  -14.8020   18.5730 P.3      30   C    1.1662
    935 C5'         5.6060  -17.2260   17.6440 C.3      30   C    0.0558
    936 O5'         5.4760  -15.8400   17.3780 O.3      30   C   -0.4989
    937 C4'         5.9070  -18.0030   16.3900 C.3      30   C    0.1065
    938 O4'         4.7890  -17.9150   15.4770 O.3      30   C   -0.3548
    939 C3'         7.0900  -17.5180   15.5720 C.3      30   C    0.2022
    940 O3'         8.3310  -17.9650   16.0840 O.3      30   C   -0.5246
    941 C2'         6.7810  -18.0590   14.1840 C.3      30   C    0.0670
    942 O2'         7.1430  -19.4280   14.0940 O.3      30   C   -0.6139
    943 C1'         5.2530  -17.9620   14.1470 C.3      30   C    0.0066
    944 N1          4.7750  -16.7530   13.4360 N.am     30   C   -0.0484
    945 C2          4.5750  -16.8070   12.0500 C.2      30   C    0.7538
    946 O2          4.8310  -17.8620   11.4460 O.2      30   C   -0.6252
    947 N3          4.1190  -15.7100   11.4000 N.2      30   C   -0.7584
    948 C4          3.8540  -14.5960   12.0820 C.2      30   C    0.8185
    949 N4          3.4040  -13.5360   11.4050 N.pl3    30   C   -0.9530
    950 C5          4.0390  -14.5160   13.4930 C.2      30   C   -0.5215
    951 C6          4.4910  -15.6080   14.1240 C.2      30   C    0.0053
    952 OP1         6.3740  -15.0610   19.5960 O.co2    30   C   -0.7760
    953 OP2         5.1740  -13.4240   18.0340 O.co2    30   C   -0.7760
    954 H5'         6.4175  -17.3752   18.3562 H        30   C    0.0679
    955 H5''        4.6770  -17.5950   18.0785 H        30   C    0.0679
    956 H4'         6.0656  -19.0488   16.6531 H        30   C    0.1174
    957 H3'         7.0845  -16.4284   15.5427 H        30   C    0.0615
    958 H2'         7.2468  -17.4615   13.4003 H        30   C    0.0972
    959 H1'         4.8494  -18.8485   13.6578 H        30   C    0.2029
    960 H5          3.8224  -13.6070   14.0345 H        30   C    0.1928
    961 H6          4.6331  -15.5824   15.1943 H        30   C    0.1958
    962 H41         3.2735  -13.5936   10.4051 H        30   C    0.4234
    963 H42         3.1943  -12.6769   11.8930 H        30   C    0.4234
    964 HO2'        7.2149  -19.7991   14.9764 H        30   C    0.4186
    965 P           9.5960  -16.9780   16.1180 P.3      31   G    1.1662
    966 C5'        10.3420  -18.5110   14.1330 C.3      31   G    0.0558
    967 O5'        10.2510  -17.2080   14.6930 O.3      31   G   -0.4989
    968 C4'        10.6520  -18.4460   12.6650 C.3      31   G    0.1065
    969 O4'         9.5300  -17.8230   11.9730 O.3      31   G   -0.3548
    970 C3'        11.8790  -17.6100   12.3090 C.3      31   G    0.2022
    971 O3'        12.4950  -18.1500   11.1410 O.3      31   G   -0.5246
    972 C2'        11.2610  -16.2540   11.9840 C.3      31   G    0.0670
    973 O2'        12.0610  -15.4160   11.1810 O.3      31   G   -0.6139
    974 C1'         9.9840  -16.6830   11.2720 C.3      31   G    0.0191
    975 N1          6.7760  -14.0800    8.3500 N.am     31   G   -0.4787
    976 C2          7.6960  -15.0450    8.0210 C.2      31   G    0.7657
    977 N2          7.7810  -15.3590    6.7200 N.pl3    31   G   -0.9672
    978 N3          8.4760  -15.6570    8.8990 N.2      31   G   -0.6323
    979 C4          8.2640  -15.2180   10.1570 C.ar     31   G    0.1222
    980 C5          7.3700  -14.2600   10.5950 C.ar     31   G    0.1744
    981 C6          6.5370  -13.6120    9.6370 C.2      31   G    0.4770
    982 O6          5.6770  -12.7370    9.8030 O.2      31   G   -0.5597
    983 N7          7.4670  -14.1110   11.9740 N.ar     31   G   -0.5709
    984 C8          8.3990  -14.9620   12.3280 C.ar     31   G    0.1374
    985 N9          8.9220  -15.6720   11.2740 N.ar     31   G    0.0492
    986 OP1        10.5100  -17.4710   17.1750 O.co2    31   G   -0.7760
    987 OP2         9.0670  -15.5920   16.2140 O.co2    31   G   -0.7760
    988 H5'        11.1338  -19.0622   14.6402 H        31   G    0.0679
    989 H5''        9.3945  -19.0303   14.2769 H        31   G    0.0679
    990 H4'        10.7878  -19.4583   12.2843 H        31   G    0.1174
    991 H3'        12.5793  -17.5455   13.1418 H        31   G    0.0615
    992 H2'        11.0067  -15.7378   12.9097 H        31   G    0.0972
    993 H1'        10.2183  -16.9598   10.2441 H        31   G    0.2006
    994 H1          6.2314  -13.6797    7.5995 H        31   G    0.3424
    995 H8          8.7245  -15.0926   13.3495 H        31   G    0.1640
    996 H21         7.1875  -14.8935    6.0483 H        31   G    0.4364
    997 H22         8.4385  -16.0610    6.4118 H        31   G    0.4364
    998 HO2'       11.6606  -14.5451   11.1284 H        31   G    0.4186
    999 P          14.0120  -17.7710   10.7720 P.3      32   G    1.1662
   1000 C5'        14.5530  -20.3180   11.0750 C.3      32   G    0.0558
   1001 O5'        14.6070  -19.1570   10.2640 O.3      32   G   -0.4989
   1002 C4'        15.1070  -21.5140   10.3470 C.3      32   G    0.1065
   1003 O4'        14.3600  -21.7210    9.1190 O.3      32   G   -0.3548
   1004 C3'        16.5530  -21.3950    9.8900 C.3      32   G    0.2022
   1005 O3'        17.4810  -21.7090   10.9110 O.3      32   G   -0.5246
   1006 C2'        16.6130  -22.3400    8.6980 C.3      32   G    0.0670
   1007 O2'        16.7220  -23.6860    9.1380 O.3      32   G   -0.6139
   1008 C1'        15.2260  -22.1420    8.0870 C.3      32   G    0.0191
   1009 N1         17.1580  -20.4930    3.6380 N.am     32   G   -0.4787
   1010 C2         17.4950  -21.6050    4.3690 C.2      32   G    0.7657
   1011 N2         18.4610  -22.3750    3.8490 N.pl3    32   G   -0.9672
   1012 N3         16.9300  -21.9400    5.5170 N.2      32   G   -0.6323
   1013 C4         15.9800  -21.0570    5.8850 C.ar     32   G    0.1222
   1014 C5         15.5710  -19.9130    5.2250 C.ar     32   G    0.1744
   1015 C6         16.1870  -19.5690    3.9950 C.2      32   G    0.4770
   1016 O6         15.9690  -18.5990    3.2600 O.2      32   G   -0.5597
   1017 N7         14.5650  -19.2700    5.9300 N.ar     32   G   -0.5709
   1018 C8         14.3860  -20.0180    6.9840 C.ar     32   G    0.1374
   1019 N9         15.2160  -21.1150    7.0270 N.ar     32   G    0.0492
   1020 OP1        13.9570  -16.8020    9.6450 O.co2    32   G   -0.7760
   1021 OP2        14.6880  -17.3640   12.0340 O.co2    32   G   -0.7760
   1022 H5'        13.5157  -20.5152   11.3456 H        32   G    0.0679
   1023 H5''       15.1341  -20.1493   11.9816 H        32   G    0.0679
   1024 H4'        15.0044  -22.3956   10.9797 H        32   G    0.1174
   1025 H3'        16.7343  -20.3768    9.5458 H        32   G    0.0615
   1026 H2'        17.4083  -22.0713    8.0027 H        32   G    0.0972
   1027 H1'        14.8709  -23.0882    7.6788 H        32   G    0.2006
   1028 H1         17.6556  -20.3355    2.7733 H        32   G    0.3424
   1029 H8         13.6565  -19.7975    7.7493 H        32   G    0.1640
   1030 H21        18.8923  -22.1206    2.9719 H        32   G    0.4364
   1031 H22        18.7576  -23.2096    4.3343 H        32   G    0.4364
   1032 HO2'       17.6361  -23.8764    9.3612 H        32   G    0.4186
   1033 P          18.5990  -20.6410   11.3420 P.3      33   U    1.1662
   1034 C5'        20.3570  -22.0830   10.0500 C.3      33   U    0.0558
   1035 O5'        19.7130  -20.8310   10.2250 O.3      33   U   -0.4989
   1036 C4'        21.2760  -22.0640    8.8580 C.3      33   U    0.1065
   1037 O4'        20.4930  -22.1030    7.6370 O.3      33   U   -0.3548
   1038 C3'        22.1360  -20.8200    8.7090 C.3      33   U    0.2022
   1039 O3'        23.2940  -20.8480    9.5200 O.3      33   U   -0.5246
   1040 C2'        22.4360  -20.8020    7.2210 C.3      33   U    0.0670
   1041 O2'        23.4520  -21.7390    6.9110 O.3      33   U   -0.6139
   1042 C1'        21.1140  -21.3140    6.6460 C.3      33   U    0.0674
   1043 N1         20.2000  -20.2060    6.2920 N.am     33   U    0.0418
   1044 C2         20.4040  -19.5760    5.0820 C.2      33   U    0.4687
   1045 O2         21.2930  -19.8900    4.3080 O.2      33   U   -0.5477
   1046 N3         19.5280  -18.5560    4.8130 N.am     33   U   -0.3549
   1047 C4         18.4910  -18.1140    5.6070 C.2      33   U    0.5952
   1048 O4         17.7890  -17.1770    5.2170 O.2      33   U   -0.5761
   1049 C5         18.3450  -18.8220    6.8410 C.2      33   U   -0.3635
   1050 C6         19.1830  -19.8210    7.1330 C.2      33   U   -0.1126
   1051 OP1        19.1290  -21.0710   12.6580 O.co2    33   U   -0.7760
   1052 OP2        17.9880  -19.2920   11.2220 O.co2    33   U   -0.7760
   1053 H5'        19.6004  -22.8537    9.9025 H        33   U    0.0679
   1054 H5''       20.9354  -22.3159   10.9440 H        33   U    0.0679
   1055 H4'        21.9225  -22.9408    8.8937 H        33   U    0.1174
   1056 H3'        21.5421  -19.9424    8.9644 H        33   U    0.0615
   1057 H2'        22.6783  -19.8012    6.8636 H        33   U    0.0972
   1058 H1'        21.3102  -21.9227    5.7634 H        33   U    0.1824
   1059 H3         19.6568  -18.0744    3.9346 H        33   U    0.3154
   1060 H5         17.5616  -18.5507    7.5332 H        33   U    0.1811
   1061 H6         19.0562  -20.3473    8.0675 H        33   U    0.2188
   1062 HO2'       24.1919  -21.2846    6.5015 H        33   U    0.4186
   1063 P          23.9630  -19.4740   10.0120 P.3      34   G    1.1662
   1064 C5'        25.8760  -19.8010    8.2560 C.3      34   G    0.0558
   1065 O5'        24.7980  -19.0160    8.7380 O.3      34   G   -0.4989
   1066 C4'        26.4060  -19.2660    6.9530 C.3      34   G    0.1065
   1067 O4'        25.4130  -19.4400    5.9060 O.3      34   G   -0.3548
   1068 C3'        26.7070  -17.7800    6.9170 C.3      34   G    0.2022
   1069 O3'        27.9420  -17.4450    7.5200 O.3      34   G   -0.5246
   1070 C2'        26.6440  -17.4760    5.4310 C.3      34   G    0.0670
   1071 O2'        27.8020  -17.9570    4.7670 O.3      34   G   -0.6139
   1072 C1'        25.4570  -18.3440    5.0170 C.3      34   G    0.0191
   1073 N1         22.4440  -14.7790    3.0180 N.am     34   G   -0.4787
   1074 C2         23.6610  -15.2360    2.5740 C.2      34   G    0.7657
   1075 N2         24.1400  -14.6710    1.4530 N.pl3    34   G   -0.9672
   1076 N3         24.3580  -16.1800    3.1860 N.2      34   G   -0.6323
   1077 C4         23.7300  -16.6340    4.2900 C.ar     34   G    0.1222
   1078 C5         22.5210  -16.2440    4.8190 C.ar     34   G    0.1744
   1079 C6         21.7820  -15.2320    4.1570 C.2      34   G    0.4770
   1080 O6         20.6860  -14.7510    4.4710 O.2      34   G   -0.5597
   1081 N7         22.2290  -16.9590    5.9730 N.ar     34   G   -0.5709
   1082 C8         23.2500  -17.7570    6.1210 C.ar     34   G    0.1374
   1083 N9         24.1890  -17.6110    5.1320 N.ar     34   G    0.0492
   1084 OP1        24.8820  -19.8120   11.1250 O.co2    34   G   -0.7760
   1085 OP2        22.8570  -18.5150   10.2640 O.co2    34   G   -0.7760
   1086 H5'        25.5300  -20.8235    8.1048 H        34   G    0.0679
   1087 H5''       26.6772  -19.8003    8.9951 H        34   G    0.0679
   1088 H4'        27.3068  -19.8173    6.6831 H        34   G    0.1174
   1089 H3'        25.9060  -17.2424    7.4244 H        34   G    0.0615
   1090 H2'        26.4676  -16.4183    5.2351 H        34   G    0.0972
   1091 H1'        25.5920  -18.6978    3.9949 H        34   G    0.2006
   1092 H1         21.9929  -14.0566    2.4751 H        34   G    0.3424
   1093 H8         23.3459  -18.4587    6.9363 H        34   G    0.1640
   1094 H21        23.6097  -13.9505    0.9843 H        34   G    0.4364
   1095 H22        25.0304  -14.9668    1.0791 H        34   G    0.4364
   1096 HO2'       28.1306  -17.2827    4.1679 H        34   G    0.4186
   1097 P          28.0850  -16.0680    8.3340 P.3      35   G    1.1662
   1098 C5'        29.0000  -15.2360    6.0280 C.3      35   G    0.0558
   1099 O5'        28.1990  -14.9890    7.1730 O.3      35   G   -0.4989
   1100 C4'        28.6700  -14.2810    4.9100 C.3      35   G    0.1065
   1101 O4'        27.3510  -14.5730    4.3830 O.3      35   G   -0.3548
   1102 C3'        28.6030  -12.8120    5.2940 C.3      35   G    0.2022
   1103 O3'        29.8820  -12.2060    5.3580 O.3      35   G   -0.5246
   1104 C2'        27.6990  -12.2220    4.2150 C.3      35   G    0.0670
   1105 O2'        28.4360  -11.9660    3.0290 O.3      35   G   -0.6139
   1106 C1'        26.7320  -13.3810    3.9470 C.3      35   G    0.0191
   1107 N1         22.2500  -10.9490    4.1710 N.am     35   G   -0.4787
   1108 C2         23.2800  -10.7960    3.2780 C.2      35   G    0.7657
   1109 N2         23.0930   -9.8780    2.3210 N.pl3    35   G   -0.9672
   1110 N3         24.4060  -11.4880    3.3190 N.2      35   G   -0.6323
   1111 C4         24.4230  -12.3660    4.3440 C.ar     35   G    0.1222
   1112 C5         23.4460  -12.5950    5.2920 C.ar     35   G    0.1744
   1113 C6         22.2420  -11.8430    5.2360 C.2      35   G    0.4770
   1114 O6         21.2560  -11.8990    5.9830 O.2      35   G   -0.5597
   1115 N7         23.8450  -13.5830    6.1800 N.ar     35   G   -0.5709
   1116 C8         25.0340  -13.9280    5.7670 C.ar     35   G    0.1374
   1117 N9         25.4510  -13.2240    4.6640 N.ar     35   G    0.0492
   1118 OP1        29.3620  -16.1340    9.0900 O.co2    35   G   -0.7760
   1119 OP2        26.8220  -15.8710    9.0850 O.co2    35   G   -0.7760
   1120 H5'        28.8249  -16.2561    5.6862 H        35   G    0.0679
   1121 H5''       30.0507  -15.1239    6.2956 H        35   G    0.0679
   1122 H4'        29.4034  -14.4041    4.1131 H        35   G    0.1174
   1123 H3'        28.1129  -12.7172    6.2630 H        35   G    0.0615
   1124 H2'        27.1767  -11.3323    4.5668 H        35   G    0.0972
   1125 H1'        26.5387  -13.4474    2.8763 H        35   G    0.2006
   1126 H1         21.4341  -10.3671    4.0452 H        35   G    0.3424
   1127 H8         25.6305  -14.6910    6.2449 H        35   G    0.1640
   1128 H21        22.2330   -9.3492    2.2896 H        35   G    0.4364
   1129 H22        23.8119   -9.7144    1.6307 H        35   G    0.4364
   1130 HO2'       29.0469  -11.2414    3.1815 H        35   G    0.4186
   1131 P          30.3130  -11.3500    6.6490 P.3      36   U    1.1662
   1132 C5'        29.8680   -9.2820    5.1190 C.3      36   U    0.0558
   1133 O5'        29.6550   -9.9340    6.3590 O.3      36   U   -0.4989
   1134 C4'        28.8260   -8.2250    4.8690 C.3      36   U    0.1065
   1135 O4'        27.5520   -8.8480    4.5680 O.3      36   U   -0.3548
   1136 C3'        28.5140   -7.3080    6.0380 C.3      36   U    0.2022
   1137 O3'        29.4760   -6.2870    6.2180 O.3      36   U   -0.5246
   1138 C2'        27.1300   -6.7880    5.6800 C.3      36   U    0.0670
   1139 O2'        27.2200   -5.7720    4.6920 O.3      36   U   -0.6139
   1140 C1'        26.4990   -8.0290    5.0440 C.3      36   U    0.0674
   1141 N1         25.6870   -8.8060    6.0170 N.am     36   U    0.0418
   1142 C2         24.3140   -8.6580    5.9470 C.2      36   U    0.4687
   1143 O2         23.7760   -7.9290    5.1330 O.2      36   U   -0.5477
   1144 N3         23.5870   -9.3840    6.8590 N.am     36   U   -0.3549
   1145 C4         24.0840  -10.2360    7.8250 C.2      36   U    0.5952
   1146 O4         23.3010  -10.8250    8.5780 O.2      36   U   -0.5761
   1147 C5         25.5140  -10.3380    7.8360 C.2      36   U   -0.3635
   1148 C6         26.2490   -9.6400    6.9580 C.2      36   U   -0.1126
   1149 OP1        31.7910  -11.2330    6.6210 O.co2    36   U   -0.7760
   1150 OP2        29.6680  -11.9780    7.8320 O.co2    36   U   -0.7760
   1151 H5'        29.8238  -10.0200    4.3181 H        36   U    0.0679
   1152 H5''       30.8543   -8.8179    5.1237 H        36   U    0.0679
   1153 H4'        29.1338   -7.6194    4.0166 H        36   U    0.1174
   1154 H3'        28.4479   -7.9014    6.9499 H        36   U    0.0615
   1155 H2'        26.5789   -6.4548    6.5594 H        36   U    0.0972
   1156 H1'        25.8694   -7.7264    4.2073 H        36   U    0.1824
   1157 H3         22.5828   -9.2839    6.8185 H        36   U    0.3154
   1158 H5         26.0016  -10.9800    8.5547 H        36   U    0.1811
   1159 H6         27.3243   -9.7356    6.9901 H        36   U    0.2188
   1160 HO2'       27.6145   -4.9856    5.0761 H        36   U    0.4186
   1161 P          29.9960   -5.9210    7.6940 P.3      37   A    1.1662
   1162 C5'        29.0130   -4.2340    9.4560 C.3      37   A    0.0558
   1163 O5'        28.8350   -4.9870    8.2580 O.3      37   A   -0.4989
   1164 C4'        27.9240   -4.5240   10.4590 C.3      37   A    0.1065
   1165 O4'        27.6470   -3.3220   11.2370 O.3      37   A   -0.3548
   1166 C3'        26.5840   -4.9490    9.8580 C.3      37   A    0.2022
   1167 O3'        25.9410   -5.8540   10.7530 O.3      37   A   -0.5246
   1168 C2'        25.8120   -3.6410    9.8410 C.3      37   A    0.0670
   1169 O2'        24.4120   -3.7850    9.7820 O.3      37   A   -0.6139
   1170 C1'        26.2660   -3.0390   11.1620 C.3      37   A    0.0394
   1171 N1         25.6800    0.8110   14.4460 N.ar     37   A   -0.7615
   1172 C2         25.8950   -0.4980   14.6120 C.ar     37   A    0.5875
   1173 N3         26.0450   -1.4420   13.6910 N.ar     37   A   -0.6997
   1174 C4         25.9480   -0.9200   12.4590 C.ar     37   A    0.3053
   1175 C5         25.7290    0.4010   12.1240 C.ar     37   A    0.0515
   1176 C6         25.5900    1.3050   13.1900 C.ar     37   A    0.7009
   1177 N6         25.3800    2.6150   13.0190 N.pl3    37   A   -0.9019
   1178 N7         25.6900    0.5600   10.7460 N.ar     37   A   -0.6073
   1179 C8         25.8850   -0.6540   10.2880 C.ar     37   A    0.2006
   1180 N9         26.0620   -1.5940   11.2740 N.ar     37   A   -0.0251
   1181 OP1        31.2460   -5.1350    7.5360 O.co2    37   A   -0.7760
   1182 OP2        30.0410   -7.1900    8.4660 O.co2    37   A   -0.7760
   1183 H5'        29.9767   -4.4910    9.8957 H        37   A    0.0679
   1184 H5''       29.0025   -3.1711    9.2147 H        37   A    0.0679
   1185 H4'        28.2691   -5.3068   11.1344 H        37   A    0.1174
   1186 H3'        26.6978   -5.3711    8.8595 H        37   A    0.0615
   1187 H2'        26.1552   -3.0196    9.0139 H        37   A    0.0972
   1188 H1'        25.7509   -3.5398   11.9817 H        37   A    0.2007
   1189 H2         25.9549   -0.8337   15.6368 H        37   A    0.0473
   1190 H8         25.9045   -0.8919    9.2347 H        37   A    0.1553
   1191 H61        25.2891    3.2209   13.8219 H        37   A    0.4115
   1192 H62        25.3124    2.9982   12.0870 H        37   A    0.4115
   1193 HO2'       23.9977   -2.9243    9.8779 H        37   A    0.4186
   1194 P          25.5730   -7.3420   10.2810 P.3      38   U    1.1662
   1195 C5'        24.4490   -9.1120   11.8590 C.3      38   U    0.0558
   1196 O5'        24.4680   -7.7860   11.3380 O.3      38   U   -0.4989
   1197 C4'        23.3270   -9.3130   12.8480 C.3      38   U    0.1065
   1198 O4'        23.5870   -8.5120   14.0340 O.3      38   U   -0.3548
   1199 C3'        21.9430   -8.9020   12.3550 C.3      38   U    0.2022
   1200 O3'        20.9620   -9.7480   12.9510 O.3      38   U   -0.5246
   1201 C2'        21.7960   -7.4940   12.9120 C.3      38   U    0.0670
   1202 O2'        20.4610   -7.0620   13.0670 O.3      38   U   -0.6139
   1203 C1'        22.5100   -7.6210   14.2540 C.3      38   U    0.0674
   1204 N1         23.0630   -6.3500   14.7580 N.am     38   U    0.0418
   1205 C2         22.6240   -5.8810   15.9800 C.2      38   U    0.4687
   1206 O2         21.8020   -6.4700   16.6640 O.2      38   U   -0.5477
   1207 N3         23.1860   -4.6910   16.3690 N.am     38   U   -0.3549
   1208 C4         24.1180   -3.9390   15.6810 C.2      38   U    0.5952
   1209 O4         24.5300   -2.8830   16.1660 O.2      38   U   -0.5761
   1210 C5         24.5150   -4.4950   14.4250 C.2      38   U   -0.3635
   1211 C6         23.9850   -5.6510   14.0180 C.2      38   U   -0.1126
   1212 OP1        26.7930   -8.1700   10.4510 O.co2    38   U   -0.7760
   1213 OP2        24.9670   -7.2350    8.9310 O.co2    38   U   -0.7760
   1214 H5'        24.3208   -9.8127   11.0339 H        38   U    0.0679
   1215 H5''       25.3994   -9.3139   12.3531 H        38   U    0.0679
   1216 H4'        23.2981  -10.3641   13.1353 H        38   U    0.1174
   1217 H3'        21.8810   -8.9150   11.2668 H        38   U    0.0615
   1218 H2'        22.3355   -6.7918   12.2764 H        38   U    0.0972
   1219 H1'        21.8294   -8.0436   14.9931 H        38   U    0.1824
   1220 H3         22.8837   -4.3233   17.2598 H        38   U    0.3154
   1221 H5         25.2394   -3.9829   13.8090 H        38   U    0.1811
   1222 H6         24.2949   -6.0540   13.0651 H        38   U    0.2188
   1223 HO2'       19.8690   -7.7008   12.6631 H        38   U    0.4186
   1224 P          20.1500  -10.8020   12.0530 P.3      39   A    1.1662
   1225 C5'        18.0110   -9.3490   11.6550 C.3      39   A    0.0558
   1226 O5'        19.2350   -9.8660   11.1520 O.3      39   A   -0.4989
   1227 C4'        16.9530   -9.2990   10.5860 C.3      39   A    0.1065
   1228 O4'        17.4010   -8.4210    9.5210 O.3      39   A   -0.3548
   1229 C3'        16.6380  -10.6370    9.9240 C.3      39   A    0.2022
   1230 O3'        15.2700  -10.6510    9.5240 O.3      39   A   -0.5246
   1231 C2'        17.5270  -10.6060    8.6880 C.3      39   A    0.0670
   1232 O2'        17.1000  -11.4480    7.6370 O.3      39   A   -0.6139
   1233 C1'        17.4480   -9.1320    8.3010 C.3      39   A    0.0394
   1234 N1         19.0240   -5.9100    4.6390 N.ar     39   A   -0.7615
   1235 C2         17.8200   -6.1590    5.1640 C.ar     39   A    0.5875
   1236 N3         17.4840   -7.0190    6.1220 N.ar     39   A   -0.6997
   1237 C4         18.5620   -7.6860    6.5650 C.ar     39   A    0.3053
   1238 C5         19.8650   -7.5440    6.1300 C.ar     39   A    0.0515
   1239 C6         20.0860   -6.6010    5.1110 C.ar     39   A    0.7009
   1240 N6         21.2890   -6.3520    4.5900 N.pl3    39   A   -0.9019
   1241 N7         20.7120   -8.4020    6.8210 N.ar     39   A   -0.6073
   1242 C8         19.9130   -9.0340    7.6470 C.ar     39   A    0.2006
   1243 N9         18.5990   -8.6490    7.5400 N.ar     39   A   -0.0251
   1244 OP1        19.3010  -11.5960   12.9740 O.co2    39   A   -0.7760
   1245 OP2        21.1450  -11.5110   11.2030 O.co2    39   A   -0.7760
   1246 H5'        18.1810   -8.3407   12.0324 H        39   A    0.0679
   1247 H5''       17.6643   -9.9824   12.4715 H        39   A    0.0679
   1248 H4'        16.0368   -8.8936   11.0153 H        39   A    0.1174
   1249 H3'        16.8784  -11.4776   10.5749 H        39   A    0.0615
   1250 H2'        18.5504  -10.8575    8.9663 H        39   A    0.0972
   1251 H1'        16.5336   -8.9505    7.7362 H        39   A    0.2007
   1252 H2         17.0057   -5.5809    4.7527 H        39   A    0.0473
   1253 H8         20.2553   -9.7847    8.3440 H        39   A    0.1553
   1254 H61        21.3900   -5.6618    3.8595 H        39   A    0.4115
   1255 H62        22.0986   -6.8537    4.9261 H        39   A    0.4115
   1256 HO2'       17.6654  -12.2229    7.5973 H        39   A    0.4186
   1257 P          14.1350  -11.1780   10.5290 P.3      40   G    1.1662
   1258 C5'        14.1120  -13.0850    8.7300 C.3      40   G    0.0558
   1259 O5'        13.3990  -12.2950    9.6690 O.3      40   G   -0.4989
   1260 C4'        13.1930  -13.6170    7.6630 C.3      40   G    0.1065
   1261 O4'        11.9580  -14.0680    8.2800 O.3      40   G   -0.3548
   1262 C3'        12.7510  -12.6060    6.6160 C.3      40   G    0.2022
   1263 O3'        13.6770  -12.4840    5.5480 O.3      40   G   -0.5246
   1264 C2'        11.3830  -13.1280    6.1840 C.3      40   G    0.0670
   1265 O2'        11.5190  -14.1820    5.2420 O.3      40   G   -0.6139
   1266 C1'        10.8530  -13.7170    7.4840 C.3      40   G    0.0191
   1267 N1          7.0050  -10.2990    7.4470 N.am     40   G   -0.4787
   1268 C2          7.5290  -11.0220    6.4040 C.2      40   G    0.7657
   1269 N2          6.9640  -10.8150    5.2040 N.pl3    40   G   -0.9672
   1270 N3          8.5310  -11.8810    6.5230 N.2      40   G   -0.6323
   1271 C4          8.9810  -11.9670    7.7940 C.ar     40   G    0.1222
   1272 C5          8.5250  -11.2860    8.9090 C.ar     40   G    0.1744
   1273 C6          7.4430  -10.3650    8.7650 C.2      40   G    0.4770
   1274 O6          6.8900   -9.6590    9.6230 O.2      40   G   -0.5597
   1275 N7          9.2510  -11.6510   10.0370 N.ar     40   G   -0.5709
   1276 C8         10.1120  -12.5240    9.5920 C.ar     40   G    0.1374
   1277 N9         10.0170  -12.7620    8.2420 N.ar     40   G    0.0492
   1278 OP1        13.2110  -10.0410   10.7830 O.co2    40   G   -0.7760
   1279 OP2        14.8260  -11.8060   11.6810 O.co2    40   G   -0.7760
   1280 H5'        14.5770  -13.9228    9.2496 H        40   G    0.0679
   1281 H5''       14.8874  -12.4765    8.2647 H        40   G    0.0679
   1282 H4'        13.6728  -14.4600    7.1658 H        40   G    0.1174
   1283 H3'        12.6264  -11.6331    7.0915 H        40   G    0.0615
   1284 H2'        10.7432  -12.3289    5.8097 H        40   G    0.0972
   1285 H1'        10.2694  -14.6107    7.2633 H        40   G    0.2006
   1286 H1          6.2420   -9.6702    7.2408 H        40   G    0.3424
   1287 H8         10.8342  -13.0153   10.2272 H        40   G    0.1640
   1288 H21         6.2008  -10.1600    5.1114 H        40   G    0.4364
   1289 H22         7.3022  -11.3142    4.3937 H        40   G    0.4364
   1290 HO2'       11.8528  -13.8302    4.4135 H        40   G    0.4186
   1291 P          14.6230  -11.1900    5.4350 P.3      41   U    1.1662
   1292 C5'        13.6440  -10.8460    3.0400 C.3      41   U    0.0558
   1293 O5'        13.8910  -10.3160    4.3340 O.3      41   U   -0.4989
   1294 C4'        12.6960   -9.9780    2.2630 C.3      41   U    0.1065
   1295 O4'        11.4580   -9.8480    3.0110 O.3      41   U   -0.3548
   1296 C3'        13.1920   -8.5640    1.9970 C.3      41   U    0.2022
   1297 O3'        12.7390   -8.1360    0.7170 O.3      41   U   -0.5246
   1298 C2'        12.5150   -7.7460    3.0920 C.3      41   U    0.0670
   1299 O2'        12.3200   -6.3850    2.7700 O.3      41   U   -0.6139
   1300 C1'        11.1890   -8.4850    3.2690 C.3      41   U    0.0674
   1301 N1         10.6340   -8.3860    4.6340 N.am     41   U    0.0418
   1302 C2          9.4550   -7.6860    4.8120 C.2      41   U    0.4687
   1303 O2          8.8550   -7.1580    3.8930 O.2      41   U   -0.5477
   1304 N3          9.0020   -7.6250    6.1080 N.am     41   U   -0.3549
   1305 C4          9.5960   -8.1860    7.2190 C.2      41   U    0.5952
   1306 O4          9.0670   -8.0470    8.3220 O.2      41   U   -0.5761
   1307 C5         10.8120   -8.8970    6.9510 C.2      41   U   -0.3635
   1308 C6         11.2790   -8.9700    5.6990 C.2      41   U   -0.1126
   1309 OP1        15.9370  -11.6500    4.9160 O.co2    41   U   -0.7760
   1310 OP2        14.5720  -10.4950    6.7460 O.co2    41   U   -0.7760
   1311 H5'        14.5876  -10.9132    2.4986 H        41   U    0.0679
   1312 H5''       13.2163  -11.8438    3.1381 H        41   U    0.0679
   1313 H4'        12.4808  -10.4596    1.3092 H        41   U    0.1174
   1314 H3'        14.2777   -8.5047    2.0727 H        41   U    0.0615
   1315 H2'        13.0963   -7.8206    4.0111 H        41   U    0.0972
   1316 H1'        10.4613   -8.1114    2.5486 H        41   U    0.1824
   1317 H3          8.1437   -7.1157    6.2632 H        41   U    0.3154
   1318 H5         11.3499   -9.3726    7.7578 H        41   U    0.1811
   1319 H6         12.1977   -9.5082    5.5180 H        41   U    0.2188
   1320 HO2'       13.1720   -5.9548    2.6669 H        41   U    0.4186
   1321 P          13.5320   -8.6000   -0.6000 P.3      42   C    1.1662
   1322 C5'        15.2680   -6.6330   -0.6350 C.3      42   C    0.0558
   1323 O5'        14.9880   -7.9990   -0.3600 O.3      42   C   -0.4989
   1324 C4'        16.7510   -6.3910   -0.7690 C.3      42   C    0.1065
   1325 O4'        17.3380   -6.1880    0.5420 O.3      42   C   -0.3548
   1326 C3'        17.5590   -7.5350   -1.3590 C.3      42   C    0.2022
   1327 O3'        17.5050   -7.5760   -2.7740 O.3      42   C   -0.5246
   1328 C2'        18.9530   -7.2820   -0.8070 C.3      42   C    0.0670
   1329 O2'        19.6020   -6.2500   -1.5330 O.3      42   C   -0.6139
   1330 C1'        18.6290   -6.7570    0.5890 C.3      42   C    0.0066
   1331 N1         18.6280   -7.8320    1.5910 N.am     42   C   -0.0484
   1332 C2         19.8380   -8.3960    1.9820 C.2      42   C    0.7538
   1333 O2         20.8840   -7.9790    1.4690 O.2      42   C   -0.6252
   1334 N3         19.8380   -9.3820    2.9050 N.2      42   C   -0.7584
   1335 C4         18.6850   -9.8010    3.4270 C.2      42   C    0.8185
   1336 N4         18.7270  -10.7770    4.3340 N.pl3    42   C   -0.9530
   1337 C5         17.4350   -9.2390    3.0460 C.2      42   C   -0.5215
   1338 C6         17.4540   -8.2630    2.1320 C.2      42   C    0.0053
   1339 OP1        13.5860  -10.0830   -0.5780 O.co2    42   C   -0.7760
   1340 OP2        12.8930   -7.9250   -1.7600 O.co2    42   C   -0.7760
   1341 H5'        14.7773   -6.3511   -1.5666 H        42   C    0.0679
   1342 H5''       14.8771   -6.0177    0.1754 H        42   C    0.0679
   1343 H4'        16.9111   -5.4967   -1.3712 H        42   C    0.1174
   1344 H3'        17.1842   -8.4780   -0.9610 H        42   C    0.0615
   1345 H2'        19.5496   -8.1935   -0.7719 H        42   C    0.0972
   1346 H1'        19.3551   -5.9945    0.8709 H        42   C    0.2029
   1347 H5         16.5080   -9.5865    3.4775 H        42   C    0.1928
   1348 H6         16.5253   -7.8098    1.8181 H        42   C    0.1958
   1349 H41        19.6141  -11.1762    4.6056 H        42   C    0.4234
   1350 H42        17.8717  -11.1173    4.7496 H        42   C    0.4234
   1351 HO2'       20.4106   -6.0001   -1.0799 H        42   C    0.4186
   1352 P          17.4230   -8.9890   -3.5330 P.3      43   C    1.1662
   1353 C5'        20.0030   -8.7200   -3.9410 C.3      43   C    0.0558
   1354 O5'        18.9270   -9.5150   -3.4620 O.3      43   C   -0.4989
   1355 C4'        21.3140   -9.4610   -3.8590 C.3      43   C    0.1065
   1356 O4'        21.8040   -9.4390   -2.4940 O.3      43   C   -0.3548
   1357 C3'        21.2580  -10.9370   -4.2190 C.3      43   C    0.2022
   1358 O3'        21.3280  -11.1660   -5.6150 O.3      43   C   -0.5246
   1359 C2'        22.4270  -11.5270   -3.4410 C.3      43   C    0.0670
   1360 O2'        23.6520  -11.2980   -4.1210 O.3      43   C   -0.6139
   1361 C1'        22.4070  -10.6730   -2.1730 C.3      43   C    0.0066
   1362 N1         21.6230  -11.3000   -1.0930 N.am     43   C   -0.0484
   1363 C2         22.2820  -11.9740   -0.0640 C.2      43   C    0.7538
   1364 O2         23.5190  -12.0460   -0.0910 O.2      43   C   -0.6252
   1365 N3         21.5540  -12.5380    0.9260 N.2      43   C   -0.7584
   1366 C4         20.2230  -12.4390    0.9160 C.2      43   C    0.8185
   1367 N4         19.5420  -13.0090    1.9110 N.pl3    43   C   -0.9530
   1368 C5         19.5270  -11.7520   -0.1170 C.2      43   C   -0.5215
   1369 C6         20.2590  -11.1990   -1.0890 C.2      43   C    0.0053
   1370 OP1        17.0510   -8.7030   -4.9420 O.co2    43   C   -0.7760
   1371 OP2        16.5390   -9.8670   -2.7250 O.co2    43   C   -0.7760
   1372 H5'        19.8112   -8.4529   -4.9802 H        43   C    0.0679
   1373 H5''       20.0686   -7.8102   -3.3443 H        43   C    0.0679
   1374 H4'        22.0407   -8.9668   -4.5038 H        43   C    0.1174
   1375 H3'        20.3288  -11.3598   -3.8369 H        43   C    0.0615
   1376 H2'        22.2762  -12.5839   -3.2211 H        43   C    0.0972
   1377 H1'        23.4280  -10.5026   -1.8314 H        43   C    0.2029
   1378 H5         18.4494  -11.6801   -0.1159 H        43   C    0.1928
   1379 H6         19.7646  -10.6628   -1.8855 H        43   C    0.1958
   1380 H41        20.0345  -13.4979    2.6449 H        43   C    0.4234
   1381 H42        18.5338  -12.9518    1.9306 H        43   C    0.4234
   1382 HO2'       23.6787  -11.8286   -4.9206 H        43   C    0.4186
   1383 P          20.8100  -12.5550   -6.2280 P.3      44   A    1.1662
   1384 C5'        21.4190  -14.9940   -5.5060 C.3      44   A    0.0558
   1385 O5'        21.7560  -13.6190   -5.5220 O.3      44   A   -0.4989
   1386 C4'        22.3390  -15.7690   -4.6050 C.3      44   A    0.1065
   1387 O4'        22.4640  -15.0870   -3.3280 O.3      44   A   -0.3548
   1388 C3'        21.8760  -17.1640   -4.2230 C.3      44   A    0.2022
   1389 O3'        22.1090  -18.1270   -5.2340 O.3      44   A   -0.5246
   1390 C2'        22.6500  -17.4180   -2.9420 C.3      44   A    0.0670
   1391 O2'        24.0120  -17.6980   -3.2280 O.3      44   A   -0.6139
   1392 C1'        22.5710  -16.0390   -2.2890 C.3      44   A    0.0394
   1393 N1         20.5500  -17.2100    2.2760 N.ar     44   A   -0.7615
   1394 C2         21.7410  -17.4650    1.7210 C.ar     44   A    0.5875
   1395 N3         22.2000  -17.1230    0.5240 N.ar     44   A   -0.6997
   1396 C4         21.2690  -16.4320   -0.1530 C.ar     44   A    0.3053
   1397 C5         19.9990  -16.0950    0.2790 C.ar     44   A    0.0515
   1398 C6         19.6350  -16.5140    1.5720 C.ar     44   A    0.7009
   1399 N6         18.4500  -16.2740    2.1440 N.pl3    44   A   -0.9019
   1400 N7         19.3260  -15.3800   -0.7020 N.ar     44   A   -0.6073
   1401 C8         20.1880  -15.3040   -1.6880 C.ar     44   A    0.2006
   1402 N9         21.3860  -15.9180   -1.4200 N.ar     44   A   -0.0251
   1403 OP1        19.4100  -12.7400   -5.7710 O.co2    44   A   -0.7760
   1404 OP2        21.0860  -12.5220   -7.6850 O.co2    44   A   -0.7760
   1405 H5'        20.3952  -15.1048   -5.1487 H        44   A    0.0679
   1406 H5''       21.4901  -15.3920   -6.5183 H        44   A    0.0679
   1407 H4'        23.3220  -15.8351   -5.0713 H        44   A    0.1174
   1408 H3'        20.8103  -17.1362   -3.9960 H        44   A    0.0615
   1409 H2'        22.1896  -18.1922   -2.3283 H        44   A    0.0972
   1410 H1'        23.4749  -15.8527   -1.7090 H        44   A    0.2007
   1411 H2         22.4264  -18.0299    2.3354 H        44   A    0.0473
   1412 H8         19.9752  -14.8055   -2.6221 H        44   A    0.1553
   1413 H61        18.2627  -16.6100    3.0779 H        44   A    0.4115
   1414 H62        17.7425  -15.7567    1.6421 H        44   A    0.4115
   1415 HO2'       24.0819  -18.5624   -3.6397 H        44   A    0.4186
   1416 P          21.1240  -19.3900   -5.3840 P.3      45   C    1.1662
   1417 C5'        22.4580  -20.8750   -3.6870 C.3      45   C    0.0558
   1418 O5'        21.2850  -20.1300   -3.9830 O.3      45   C   -0.4989
   1419 C4'        22.3530  -21.5850   -2.3620 C.3      45   C    0.1065
   1420 O4'        22.1600  -20.6180   -1.2970 O.3      45   C   -0.3548
   1421 C3'        21.1840  -22.5470   -2.2000 C.3      45   C    0.2022
   1422 O3'        21.4130  -23.8120   -2.8050 O.3      45   C   -0.5246
   1423 C2'        21.0310  -22.6160   -0.6880 C.3      45   C    0.0670
   1424 O2'        22.0250  -23.4590   -0.1240 O.3      45   C   -0.6139
   1425 C1'        21.3410  -21.1720   -0.2900 C.3      45   C    0.0066
   1426 N1         20.1150  -20.3590   -0.1860 N.am     45   C   -0.0484
   1427 C2         19.4450  -20.3350    1.0340 C.2      45   C    0.7538
   1428 O2         19.9180  -20.9920    1.9740 O.2      45   C   -0.6252
   1429 N3         18.3110  -19.6030    1.1460 N.2      45   C   -0.7584
   1430 C4         17.8560  -18.9200    0.0950 C.2      45   C    0.8185
   1431 N4         16.7360  -18.2120    0.2450 N.pl3    45   C   -0.9530
   1432 C5         18.5210  -18.9290   -1.1630 C.2      45   C   -0.5215
   1433 C6         19.6380  -19.6570   -1.2570 C.2      45   C    0.0053
   1434 OP1        21.6700  -20.2440   -6.4730 O.co2    45   C   -0.7760
   1435 OP2        19.7440  -18.8570   -5.5190 O.co2    45   C   -0.7760
   1436 H5'        23.3090  -20.1946   -3.6556 H        45   C    0.0679
   1437 H5''       22.6200  -21.6117   -4.4739 H        45   C    0.0679
   1438 H4'        23.2811  -22.1269   -2.1799 H        45   C    0.1174
   1439 H3'        20.2885  -22.0996   -2.6314 H        45   C    0.0615
   1440 H2'        20.0254  -22.9148   -0.3920 H        45   C    0.0972
   1441 H1'        21.8713  -21.1597    0.6622 H        45   C    0.2029
   1442 H5         18.1395  -18.3715   -2.0057 H        45   C    0.1928
   1443 H6         20.1724  -19.6910   -2.1949 H        45   C    0.1958
   1444 H41        16.2595  -18.2033    1.1355 H        45   C    0.4234
   1445 H42        16.3642  -17.6845   -0.5319 H        45   C    0.4234
   1446 HO2'       22.8545  -23.3319   -0.5902 H        45   C    0.4186
   1447 P          20.1730  -24.7460   -3.2360 P.3      46   G    1.1662
   1448 C5'        20.2010  -25.9640   -0.9200 C.3      46   G    0.0558
   1449 O5'        19.5180  -25.1330   -1.8430 O.3      46   G   -0.4989
   1450 C4'        19.3550  -26.2290    0.2950 C.3      46   G    0.1065
   1451 O4'        19.2220  -25.0090    1.0710 O.3      46   G   -0.3548
   1452 C3'        17.9220  -26.6530    0.0160 C.3      46   G    0.2022
   1453 O3'        17.7980  -28.0360   -0.2580 O.3      46   G   -0.5246
   1454 C2'        17.1900  -26.2080    1.2710 C.3      46   G    0.0670
   1455 O2'        17.4230  -27.1170    2.3350 O.3      46   G   -0.6139
   1456 C1'        17.9130  -24.9040    1.5880 C.3      46   G    0.0191
   1457 N1         14.1620  -21.4610    1.8490 N.am     46   G   -0.4787
   1458 C2         14.4720  -22.4860    2.7120 C.2      46   G    0.7657
   1459 N2         13.6890  -22.6210    3.7950 N.pl3    46   G   -0.9672
   1460 N3         15.4790  -23.3260    2.5380 N.2      46   G   -0.6323
   1461 C4         16.1660  -23.0560    1.4130 C.ar     46   G    0.1222
   1462 C5         15.9400  -22.0620    0.4840 C.ar     46   G    0.1744
   1463 C6         14.8570  -21.1660    0.6820 C.2      46   G    0.4770
   1464 O6         14.4930  -20.2190   -0.0270 O.2      46   G   -0.5597
   1465 N7         16.8740  -22.1250   -0.5380 N.ar     46   G   -0.5709
   1466 C8         17.6340  -23.1340   -0.2150 C.ar     46   G    0.1374
   1467 N9         17.2590  -23.7460    0.9540 N.ar     46   G    0.0492
   1468 OP1        20.7370  -25.9590   -3.8790 O.co2    46   G   -0.7760
   1469 OP2        19.2350  -23.9000   -4.0130 O.co2    46   G   -0.7760
   1470 H5'        21.1231  -25.4714   -0.6116 H        46   G    0.0679
   1471 H5''       20.4440  -26.9112   -1.4016 H        46   G    0.0679
   1472 H4'        19.8390  -26.9899    0.9073 H        46   G    0.1174
   1473 H3'        17.5436  -26.0871   -0.8353 H        46   G    0.0615
   1474 H2'        16.1262  -26.0528    1.0909 H        46   G    0.0972
   1475 H1'        17.9539  -24.7585    2.6675 H        46   G    0.2006
   1476 H1         13.3698  -20.8789    2.0806 H        46   G    0.3424
   1477 H8         18.4761  -23.4563   -0.8095 H        46   G    0.1640
   1478 H21        12.9168  -21.9868    3.9421 H        46   G    0.4364
   1479 H22        13.8724  -23.3567    4.4622 H        46   G    0.4364
   1480 HO2'       16.9567  -26.8181    3.1191 H        46   G    0.4186
   1481 P          16.9500  -28.5370   -1.5260 P.3      47   A    1.1662
   1482 C5'        15.1580  -28.9710    0.3370 C.3      47   A    0.0558
   1483 O5'        15.4570  -28.5230   -0.9760 O.3      47   A   -0.4989
   1484 C4'        14.0090  -28.2000    0.9270 C.3      47   A    0.1065
   1485 O4'        14.4200  -26.8310    1.1780 O.3      47   A   -0.3548
   1486 C3'        12.7820  -28.0650    0.0400 C.3      47   A    0.2022
   1487 O3'        11.9340  -29.1960    0.1020 O.3      47   A   -0.5246
   1488 C2'        12.1350  -26.7860    0.5480 C.3      47   A    0.0670
   1489 O2'        11.4100  -27.0350    1.7430 O.3      47   A   -0.6139
   1490 C1'        13.3610  -25.9450    0.8950 C.3      47   A    0.0394
   1491 N1         12.0140  -22.1430   -2.3410 N.ar     47   A   -0.7615
   1492 C2         11.3500  -22.7690   -1.3590 C.ar     47   A    0.5875
   1493 N3         11.7510  -23.7510   -0.5500 N.ar     47   A   -0.6997
   1494 C4         13.0160  -24.0980   -0.8340 C.ar     47   A    0.3053
   1495 C5         13.8290  -23.5520   -1.8150 C.ar     47   A    0.0515
   1496 C6         13.2850  -22.5200   -2.6010 C.ar     47   A    0.7009
   1497 N6         13.9520  -21.9030   -3.5800 N.pl3    47   A   -0.9019
   1498 N7         15.0740  -24.1650   -1.8180 N.ar     47   A   -0.6073
   1499 C8         14.9850  -25.0530   -0.8580 C.ar     47   A    0.2006
   1500 N9         13.7700  -25.0710   -0.2210 N.ar     47   A   -0.0251
   1501 OP1        17.1050  -27.5150   -2.5930 O.co2    47   A   -0.7760
   1502 OP2        17.3700  -29.9310   -1.8080 O.co2    47   A   -0.7760
   1503 H5'        14.8950  -30.0282    0.3004 H        47   A    0.0679
   1504 H5''       16.0373  -28.8423    0.9682 H        47   A    0.0679
   1505 H4'        13.7172  -28.6624    1.8699 H        47   A    0.1174
   1506 H3'        13.1027  -27.9165   -0.9911 H        47   A    0.0615
   1507 H2'        11.5163  -26.3111   -0.2135 H        47   A    0.0972
   1508 H1'        13.1491  -25.3375    1.7749 H        47   A    0.2007
   1509 H2         10.3382  -22.4269   -1.1987 H        47   A    0.0473
   1510 H8         15.7973  -25.7130   -0.5916 H        47   A    0.1553
   1511 H61        14.9028  -22.1710   -3.7901 H        47   A    0.4115
   1512 H62        13.5055  -21.1684   -4.1102 H        47   A    0.4115
   1513 HO2'       10.6341  -27.5638    1.5428 H        47   A    0.4186
   1514 P          11.7420  -30.1330   -1.1870 P.3      48   A    1.1662
   1515 C5'         9.4020  -28.9670   -1.3860 C.3      48   A    0.0558
   1516 O5'        10.6130  -29.3690   -2.0080 O.3      48   A   -0.4989
   1517 C4'         8.7680  -27.8140   -2.1190 C.3      48   A    0.1065
   1518 O4'         9.5670  -26.6190   -1.9270 O.3      48   A   -0.3548
   1519 C3'         8.6800  -27.9620   -3.6290 C.3      48   A    0.2022
   1520 O3'         7.5680  -28.7300   -4.0440 O.3      48   A   -0.5246
   1521 C2'         8.6400  -26.5200   -4.1070 C.3      48   A    0.0670
   1522 O2'         7.3440  -25.9700   -3.9320 O.3      48   A   -0.6139
   1523 C1'         9.5840  -25.8520   -3.1120 C.3      48   A    0.0394
   1524 N1         12.9830  -23.3610   -6.0840 N.ar     48   A   -0.7615
   1525 C2         11.6880  -23.1440   -5.8210 C.ar     48   A    0.5875
   1526 N3         10.8580  -23.8330   -5.0380 N.ar     48   A   -0.6997
   1527 C4         11.4940  -24.8730   -4.4730 C.ar     48   A    0.3053
   1528 C5         12.8190  -25.2290   -4.6450 C.ar     48   A    0.0515
   1529 C6         13.5900  -24.4180   -5.5000 C.ar     48   A    0.7009
   1530 N6         14.8820  -24.6370   -5.7640 N.pl3    48   A   -0.9019
   1531 N7         13.1270  -26.3660   -3.9040 N.ar     48   A   -0.6073
   1532 C8         11.9970  -26.6660   -3.3110 C.ar     48   A    0.2006
   1533 N9         10.9690  -25.8060   -3.6130 N.ar     48   A   -0.0251
   1534 OP1        11.2240  -31.4410   -0.7070 O.co2    48   A   -0.7760
   1535 OP2        13.0200  -30.1070   -1.9400 O.co2    48   A   -0.7760
   1536 H5'         9.6132  -28.6630   -0.3608 H        48   A    0.0679
   1537 H5''        8.7091  -29.8083   -1.3744 H        48   A    0.0679
   1538 H4'         7.7687  -27.6430   -1.7186 H        48   A    0.1174
   1539 H3'         9.5931  -28.4323   -3.9940 H        48   A    0.0615
   1540 H2'         8.9912  -26.4200   -5.1340 H        48   A    0.0972
   1541 H1'         9.2371  -24.8408   -2.8994 H        48   A    0.2007
   1542 H2         11.2535  -22.2872   -6.3145 H        48   A    0.0473
   1543 H8         11.8846  -27.5104   -2.6470 H        48   A    0.1553
   1544 H61        15.3819  -24.0190   -6.3871 H        48   A    0.4115
   1545 H62        15.3583  -25.4204   -5.3403 H        48   A    0.4115
   1546 HO2'        6.9939  -25.6985   -4.7837 H        48   A    0.4186
   1547 P           7.7670  -29.9080   -5.1140 P.3      49   U    1.1662
   1548 C5'         6.3660  -28.7240   -6.9880 C.3      49   U    0.0558
   1549 O5'         7.6350  -29.1470   -6.5080 O.3      49   U   -0.4989
   1550 C4'         6.4970  -27.8640   -8.2200 C.3      49   U    0.1065
   1551 O4'         7.2700  -26.6760   -7.9090 O.3      49   U   -0.3548
   1552 C3'         7.2340  -28.4900   -9.3960 C.3      49   U    0.2022
   1553 O3'         6.4160  -29.3490  -10.1700 O.3      49   U   -0.5246
   1554 C2'         7.7360  -27.2730  -10.1600 C.3      49   U    0.0670
   1555 O2'         6.6930  -26.7010  -10.9340 O.3      49   U   -0.6139
   1556 C1'         8.0690  -26.3160   -9.0160 C.3      49   U    0.0674
   1557 N1          9.4860  -26.4050   -8.6160 N.am     49   U    0.0418
   1558 C2         10.3990  -25.6490   -9.3220 C.2      49   U    0.4687
   1559 O2         10.0800  -24.9280  -10.2510 O.2      49   U   -0.5477
   1560 N3         11.7000  -25.7720   -8.9020 N.am     49   U   -0.3549
   1561 C4         12.1670  -26.5560   -7.8680 C.2      49   U    0.5952
   1562 O4         13.3690  -26.5630   -7.6080 O.2      49   U   -0.5761
   1563 C5         11.1590  -27.3060   -7.1850 C.2      49   U   -0.3635
   1564 C6          9.8840  -27.2060   -7.5730 C.2      49   U   -0.1126
   1565 OP1         6.6320  -30.8480   -4.9420 O.co2    49   U   -0.7760
   1566 OP2         9.1520  -30.4190   -4.9440 O.co2    49   U   -0.7760
   1567 H5'         5.7693  -29.6029   -7.2321 H        49   U    0.0679
   1568 H5''        5.8607  -28.1550   -6.2076 H        49   U    0.0679
   1569 H4'         5.5021  -27.5621   -8.5472 H        49   U    0.1174
   1570 H3'         8.0888  -29.0534   -9.0218 H        49   U    0.0615
   1571 H2'         8.6123  -27.5049  -10.7653 H        49   U    0.0972
   1572 H1'         7.8379  -25.2939   -9.3161 H        49   U    0.1824
   1573 H3         12.3890  -25.2304   -9.4040 H        49   U    0.3154
   1574 H5         11.4266  -27.9497   -6.3601 H        49   U    0.1811
   1575 H6          9.1357  -27.7784   -7.0450 H        49   U    0.2188
   1576 HO2'        6.4712  -27.2906  -11.6584 H        49   U    0.4186
   1577 P           7.0630  -30.6120  -10.9240 P.3      50   C    1.1662
   1578 C5'         6.9560  -29.4970  -13.2940 C.3      50   C    0.0558
   1579 O5'         7.7420  -29.9520  -12.2030 O.3      50   C   -0.4989
   1580 C4'         7.8100  -28.8530  -14.3550 C.3      50   C    0.1065
   1581 O4'         8.4320  -27.6540  -13.8180 O.3      50   C   -0.3548
   1582 C3'         8.9850  -29.6790  -14.8570 C.3      50   C    0.2022
   1583 O3'         8.6200  -30.6420  -15.8280 O.3      50   C   -0.5246
   1584 C2'         9.9360  -28.6150  -15.3770 C.3      50   C    0.0670
   1585 O2'         9.4980  -28.1210  -16.6340 O.3      50   C   -0.6139
   1586 C1'         9.7410  -27.5180  -14.3350 C.3      50   C    0.0066
   1587 N1         10.6990  -27.6490  -13.2190 N.am     50   C   -0.0484
   1588 C2         11.9680  -27.0860  -13.3620 C.2      50   C    0.7538
   1589 O2         12.2440  -26.4890  -14.4140 O.2      50   C   -0.6252
   1590 N3         12.8590  -27.2050  -12.3510 N.2      50   C   -0.7584
   1591 C4         12.5220  -27.8550  -11.2360 C.2      50   C    0.8185
   1592 N4         13.4350  -27.9440  -10.2670 N.pl3    50   C   -0.9530
   1593 C5         11.2350  -28.4420  -11.0680 C.2      50   C   -0.5215
   1594 C6         10.3640  -28.3190  -12.0760 C.2      50   C    0.0053
   1595 OP1         5.9440  -31.4920  -11.3430 O.co2    50   C   -0.7760
   1596 OP2         8.1070  -31.1650  -10.0300 O.co2    50   C   -0.7760
   1597 H5'         6.2325  -28.7675  -12.9300 H        50   C    0.0679
   1598 H5''        6.4233  -30.3430  -13.7284 H        50   C    0.0679
   1599 H4'         7.1801  -28.5789  -15.2013 H        50   C    0.1174
   1600 H3'         9.4489  -30.1864  -14.0112 H        50   C    0.0615
   1601 H2'        10.9666  -28.9683  -15.4121 H        50   C    0.0972
   1602 H1'         9.8525  -26.5403  -14.8037 H        50   C    0.2029
   1603 H5         10.9723  -28.9665  -10.1612 H        50   C    0.1928
   1604 H6          9.3806  -28.7561  -11.9850 H        50   C    0.1958
   1605 H41        14.3461  -27.5262  -10.3916 H        50   C    0.4234
   1606 H42        13.2150  -28.4291   -9.4089 H        50   C    0.4234
   1607 HO2'       10.2556  -27.9954  -17.2101 H        50   C    0.4186
   1608 P           9.5380  -31.9420  -16.0590 P.3      51   C    1.1662
   1609 C5'        10.8050  -30.7120  -17.9980 C.3      51   C    0.0558
   1610 O5'        10.8530  -31.3350  -16.7230 O.3      51   C   -0.4989
   1611 C4'        12.1880  -30.4230  -18.5280 C.3      51   C    0.1065
   1612 O4'        12.8820  -29.5170  -17.6290 O.3      51   C   -0.3548
   1613 C3'        13.1250  -31.6180  -18.6430 C.3      51   C    0.2022
   1614 O3'        12.8990  -32.3900  -19.8110 O.3      51   C   -0.5246
   1615 C2'        14.5000  -30.9630  -18.5970 C.3      51   C    0.0670
   1616 O2'        14.8230  -30.3880  -19.8560 O.3      51   C   -0.6139
   1617 C1'        14.2600  -29.8310  -17.5970 C.3      51   C    0.0066
   1618 N1         14.6230  -30.2220  -16.2170 N.am     51   C   -0.0484
   1619 C2         15.9730  -30.2540  -15.8510 C.2      51   C    0.7538
   1620 O2         16.8330  -29.9560  -16.6920 O.2      51   C   -0.6252
   1621 N3         16.3100  -30.6120  -14.5910 N.2      51   C   -0.7584
   1622 C4         15.3580  -30.9280  -13.7110 C.2      51   C    0.8185
   1623 N4         15.7380  -31.2740  -12.4780 N.pl3    51   C   -0.9530
   1624 C5         13.9750  -30.9020  -14.0560 C.2      51   C   -0.5215
   1625 C6         13.6560  -30.5470  -15.3070 C.2      51   C    0.0053
   1626 OP1         9.8580  -32.4930  -14.7210 O.co2    51   C   -0.7760
   1627 OP2         8.8340  -32.8060  -17.0350 O.co2    51   C   -0.7760
   1628 H5'        10.2902  -31.3730  -18.6953 H        51   C    0.0679
   1629 H5''       10.2510  -29.7768  -17.9176 H        51   C    0.0679
   1630 H4'        12.0989  -29.9496  -19.5058 H        51   C    0.1174
   1631 H3'        13.0026  -32.2534  -17.7658 H        51   C    0.0615
   1632 H2'        15.2701  -31.6541  -18.2542 H        51   C    0.0972
   1633 H1'        14.8395  -28.9561  -17.8917 H        51   C    0.2029
   1634 H5         13.2130  -31.1591  -13.3351 H        51   C    0.1928
   1635 H6         12.6175  -30.5169  -15.6020 H        51   C    0.1958
   1636 H41        16.7189  -31.2906  -12.2379 H        51   C    0.4234
   1637 H42        15.0444  -31.5190  -11.7859 H        51   C    0.4234
   1638 HO2'       14.9771  -31.0859  -20.4969 H        51   C    0.4186
   1639 P          13.1120  -33.9860  -19.7840 P.3      52   A    1.1662
   1640 C5'        14.9330  -35.1100  -18.2710 C.3      52   A    0.0558
   1641 O5'        13.8280  -34.2240  -18.3840 O.3      52   A   -0.4989
   1642 C4'        16.1970  -34.3670  -17.9210 C.3      52   A    0.1065
   1643 O4'        16.0500  -33.7290  -16.6260 O.3      52   A   -0.3548
   1644 C3'        17.4480  -35.2160  -17.7730 C.3      52   A    0.2022
   1645 O3'        18.0490  -35.5370  -19.0160 O.3      52   A   -0.6541
   1646 C2'        18.3250  -34.3560  -16.8730 C.3      52   A    0.0670
   1647 O2'        18.9310  -33.3070  -17.6150 O.3      52   A   -0.6139
   1648 C1'        17.2830  -33.7430  -15.9390 C.3      52   A    0.0394
   1649 N1         18.2830  -34.0430  -10.8890 N.ar     52   A   -0.7615
   1650 C2         18.5910  -33.1270  -11.8150 C.ar     52   A    0.5875
   1651 N3         18.3000  -33.1090  -13.1140 N.ar     52   A   -0.6997
   1652 C4         17.5960  -34.2020  -13.4560 C.ar     52   A    0.3053
   1653 C5         17.2030  -35.2310  -12.6190 C.ar     52   A    0.0515
   1654 C6         17.5750  -35.1310  -11.2640 C.ar     52   A    0.7009
   1655 N6         17.2680  -36.0420  -10.3370 N.pl3    52   A   -0.9019
   1656 N7         16.4900  -36.1920  -13.3250 N.ar     52   A   -0.6073
   1657 C8         16.4700  -35.7300  -14.5520 C.ar     52   A    0.2006
   1658 N9         17.1200  -34.5310  -14.7030 N.ar     52   A   -0.0251
   1659 OP1        11.7650  -34.6060  -19.7730 O.co2    52   A   -0.7760
   1660 OP2        14.0420  -34.3220  -20.8890 O.co2    52   A   -0.7760
   1661 H5'        14.7233  -35.8412  -17.4903 H        52   A    0.0679
   1662 H5''       15.0739  -35.6291  -19.2190 H        52   A    0.0679
   1663 H4'        16.3769  -33.6004  -18.6747 H        52   A    0.1174
   1664 H3'        17.1945  -36.1380  -17.2498 H        52   A    0.0615
   1665 H2'        19.0604  -34.9503  -16.3306 H        52   A    0.0972
   1666 H1'        17.5728  -32.7229  -15.6869 H        52   A    0.2007
   1667 H2         19.1574  -32.2801  -11.4567 H        52   A    0.0473
   1668 H8         15.9865  -36.2457  -15.3685 H        52   A    0.1553
   1669 H61        17.5650  -35.9094   -9.3808 H        52   A    0.4115
   1670 H62        16.7388  -36.8636  -10.5921 H        52   A    0.4115
   1671 HO3'       18.8316  -36.0720  -18.8649 H        52   A    0.4376
   1672 HO2'       19.5901  -33.6738  -18.2088 H        52   A    0.4186
   1673 C5'        23.8370  -23.9620  -13.1620 C.3      53   G    0.0558
   1674 O5'        23.2230  -24.0800  -11.8870 O.3      53   G   -0.6223
   1675 C4'        22.8120  -23.8940  -14.2640 C.3      53   G    0.1065
   1676 O4'        22.2440  -25.2100  -14.4930 O.3      53   G   -0.3548
   1677 C3'        21.5990  -23.0220  -13.9940 C.3      53   G    0.2022
   1678 O3'        21.8490  -21.6410  -14.1740 O.3      53   G   -0.5246
   1679 C2'        20.5720  -23.5920  -14.9600 C.3      53   G    0.0670
   1680 O2'        20.8370  -23.1630  -16.2860 O.3      53   G   -0.6139
   1681 C1'        20.8850  -25.0840  -14.8660 C.3      53   G    0.0191
   1682 N1         16.2510  -26.8120  -13.8390 N.am     53   G   -0.4787
   1683 C2         16.7370  -26.1980  -14.9730 C.2      53   G    0.7657
   1684 N2         15.8740  -26.0130  -15.9880 N.pl3    53   G   -0.9672
   1685 N3         17.9870  -25.7920  -15.1080 N.2      53   G   -0.6323
   1686 C4         18.7230  -26.0540  -14.0050 C.ar     53   G    0.1222
   1687 C5         18.3390  -26.6570  -12.8270 C.ar     53   G    0.1744
   1688 C6         16.9940  -27.0880  -12.6940 C.2      53   G    0.4770
   1689 O6         16.4510  -27.6430  -11.7330 O.2      53   G   -0.5597
   1690 N7         19.4070  -26.7310  -11.9440 N.ar     53   G   -0.5709
   1691 C8         20.4010  -26.1790  -12.5900 C.ar     53   G    0.1374
   1692 N9         20.0510  -25.7510  -13.8500 N.ar     53   G    0.0492
   1693 H5'        24.4394  -23.0538  -13.1822 H        53   G    0.0679
   1694 H5''       24.4837  -24.8235  -13.3282 H        53   G    0.0679
   1695 H4'        23.2970  -23.5532  -15.1787 H        53   G    0.1174
   1696 H3'        21.2591  -23.1918  -12.9724 H        53   G    0.0615
   1697 H2'        19.5507  -23.3671  -14.6526 H        53   G    0.0972
   1698 H1'        20.7262  -25.5538  -15.8367 H        53   G    0.2006
   1699 H1         15.2782  -27.0835  -13.8383 H        53   G    0.3424
   1700 H8         21.3932  -26.0704  -12.1775 H        53   G    0.1640
   1701 H21        14.9157  -26.3192  -15.8983 H        53   G    0.4364
   1702 H22        16.1843  -25.5679  -16.8399 H        53   G    0.4364
   1703 HO2'       20.2841  -23.6545  -16.8979 H        53   G    0.4186
   1704 HO5'       23.7552  -24.1633  -11.0924 H        53   G    0.4295
   1705 P          21.1190  -20.5640  -13.2320 P.3      54   A    1.1662
   1706 C5'        19.2410  -20.3540  -15.0510 C.3      54   A    0.0558
   1707 O5'        19.5990  -20.6510  -13.7080 O.3      54   A   -0.4989
   1708 C4'        17.8270  -20.7820  -15.3630 C.3      54   A    0.1065
   1709 O4'        17.6880  -22.2160  -15.1820 O.3      54   A   -0.3548
   1710 C3'        16.7370  -20.2010  -14.4770 C.3      54   A    0.2022
   1711 O3'        16.3830  -18.8740  -14.8230 O.3      54   A   -0.5246
   1712 C2'        15.6070  -21.2040  -14.6550 C.3      54   A    0.0670
   1713 O2'        14.9600  -21.0180  -15.9070 O.3      54   A   -0.6139
   1714 C1'        16.3900  -22.5150  -14.7050 C.3      54   A    0.0394
   1715 N1         13.8180  -24.6880  -10.8440 N.ar     54   A   -0.7615
   1716 C2         13.4320  -24.2040  -12.0320 C.ar     54   A    0.5875
   1717 N3         14.1670  -23.6520  -12.9930 N.ar     54   A   -0.6997
   1718 C4         15.4620  -23.6170  -12.6340 C.ar     54   A    0.3053
   1719 C5         16.0160  -24.0710  -11.4510 C.ar     54   A    0.0515
   1720 C6         15.1290  -24.6360  -10.5150 C.ar     54   A    0.7009
   1721 N6         15.5100  -25.1220   -9.3310 N.pl3    54   A   -0.9019
   1722 N7         17.3900  -23.8640  -11.4390 N.ar     54   A   -0.6073
   1723 C8         17.6310  -23.2960  -12.5960 C.ar     54   A    0.2006
   1724 N9         16.5090  -23.1230  -13.3690 N.ar     54   A   -0.0251
   1725 OP1        21.6810  -19.2350  -13.5740 O.co2    54   A   -0.7760
   1726 OP2        21.2390  -21.0500  -11.8350 O.co2    54   A   -0.7760
   1727 H5'        19.9235  -20.8762  -15.7215 H        54   A    0.0679
   1728 H5''       19.3326  -19.2803  -15.2150 H        54   A    0.0679
   1729 H4'        17.6055  -20.5351  -16.4013 H        54   A    0.1174
   1730 H3'        17.0719  -20.2217  -13.4399 H        54   A    0.0615
   1731 H2'        14.9032  -21.1793  -13.8231 H        54   A    0.0972
   1732 H1'        15.8991  -23.2117  -15.3845 H        54   A    0.2007
   1733 H2         12.3741  -24.2717  -12.2385 H        54   A    0.0473
   1734 H8         18.6185  -22.9929  -12.9113 H        54   A    0.1553
   1735 H61        14.8245  -25.5163   -8.7027 H        54   A    0.4115
   1736 H62        16.4836  -25.0953   -9.0638 H        54   A    0.4115
   1737 HO2'       14.3620  -21.7511  -16.0699 H        54   A    0.4186
   1738 P          15.9450  -17.8300  -13.6810 P.3      55   U    1.1662
   1739 C5'        13.4420  -18.5300  -14.0450 C.3      55   U    0.0558
   1740 O5'        14.5570  -18.4270  -13.1690 O.3      55   U   -0.4989
   1741 C4'        12.2220  -19.0680  -13.3380 C.3      55   U    0.1065
   1742 O4'        12.4530  -20.4410  -12.9220 O.3      55   U   -0.3548
   1743 C3'        11.8240  -18.3640  -12.0510 C.3      55   U    0.2022
   1744 O3'        11.1270  -17.1480  -12.2690 O.3      55   U   -0.5246
   1745 C2'        10.9970  -19.4300  -11.3450 C.3      55   U    0.0670
   1746 O2'         9.7030  -19.5280  -11.9190 O.3      55   U   -0.6139
   1747 C1'        11.7760  -20.6910  -11.7050 C.3      55   U    0.0674
   1748 N1         12.7730  -21.0330  -10.6700 N.am     55   U    0.0418
   1749 C2         12.3050  -21.6710   -9.5360 C.2      55   U    0.4687
   1750 O2         11.1280  -21.9550   -9.3690 O.2      55   U   -0.5477
   1751 N3         13.2730  -21.9630   -8.6070 N.am     55   U   -0.3549
   1752 C4         14.6250  -21.6890   -8.6910 C.2      55   U    0.5952
   1753 O4         15.3690  -22.0180   -7.7660 O.2      55   U   -0.5761
   1754 C5         15.0230  -21.0250   -9.8940 C.2      55   U   -0.3635
   1755 C6         14.1050  -20.7250  -10.8190 C.2      55   U   -0.1126
   1756 OP1        16.9600  -17.9140  -12.6020 O.co2    55   U   -0.7760
   1757 OP2        15.7190  -16.5240  -14.3480 O.co2    55   U   -0.7760
   1758 H5'        13.2124  -17.5410  -14.4416 H        55   U    0.0679
   1759 H5''       13.6975  -19.1944  -14.8704 H        55   U    0.0679
   1760 H4'        11.3776  -19.0462  -14.0269 H        55   U    0.1174
   1761 H3'        12.7198  -18.1611  -11.4640 H        55   U    0.0615
   1762 H2'        10.9554  -19.2685  -10.2678 H        55   U    0.0972
   1763 H1'        11.0844  -21.5233  -11.8356 H        55   U    0.1824
   1764 H3         12.9619  -22.4308   -7.7676 H        55   U    0.3154
   1765 H5         16.0595  -20.7673  -10.0543 H        55   U    0.1811
   1766 H6         14.4225  -20.2204  -11.7195 H        55   U    0.2188
   1767 HO2'        9.1962  -18.7418  -11.7030 H        55   U    0.4186
   1768 P          11.2990  -15.9210  -11.2390 P.3      56   U    1.1662
   1769 C5'         9.6920  -17.0230   -9.4800 C.3      56   U    0.0558
   1770 O5'        11.0020  -16.5950   -9.8260 O.3      56   U   -0.4989
   1771 C4'         9.6800  -17.7630   -8.1660 C.3      56   U    0.1065
   1772 O4'        10.5790  -18.9040   -8.2320 O.3      56   U   -0.3548
   1773 C3'        10.1790  -16.9840   -6.9580 C.3      56   U    0.2022
   1774 O3'         9.2150  -16.0980   -6.4200 O.3      56   U   -0.5246
   1775 C2'        10.5940  -18.0950   -6.0090 C.3      56   U    0.0670
   1776 O2'         9.4540  -18.7220   -5.4370 O.3      56   U   -0.6139
   1777 C1'        11.2370  -19.0710   -6.9920 C.3      56   U    0.0674
   1778 N1         12.6720  -18.7760   -7.1850 N.am     56   U    0.0418
   1779 C2         13.5710  -19.2240   -6.2370 C.2      56   U    0.4687
   1780 O2         13.2390  -19.8570   -5.2500 O.2      56   U   -0.5477
   1781 N3         14.8820  -18.9010   -6.4870 N.am     56   U   -0.3549
   1782 C4         15.3760  -18.1910   -7.5610 C.2      56   U    0.5952
   1783 O4         16.5870  -17.9800   -7.6510 O.2      56   U   -0.5761
   1784 C5         14.3840  -17.7620   -8.4930 C.2      56   U   -0.3635
   1785 C6         13.1010  -18.0610   -8.2760 C.2      56   U   -0.1126
   1786 OP1        12.7200  -15.4910  -11.3050 O.co2    56   U   -0.7760
   1787 OP2        10.2380  -14.9300  -11.5570 O.co2    56   U   -0.7760
   1788 H5'         9.0440  -16.1501   -9.4004 H        56   U    0.0679
   1789 H5''        9.3123  -17.6794  -10.2630 H        56   U    0.0679
   1790 H4'         8.6688  -18.1181   -7.9671 H        56   U    0.1174
   1791 H3'        11.0630  -16.4142   -7.2444 H        56   U    0.0615
   1792 H2'        11.2976  -17.7490   -5.2518 H        56   U    0.0972
   1793 H1'        11.1110  -20.0941   -6.6378 H        56   U    0.1824
   1794 H3         15.5598  -19.2187   -5.8089 H        56   U    0.3154
   1795 H5         14.6696  -17.1986   -9.3690 H        56   U    0.1811
   1796 H6         12.3660  -17.7247   -8.9923 H        56   U    0.2188
   1797 HO2'        9.0363  -18.1216   -4.8152 H        56   U    0.4186
   1798 P           9.5610  -14.5370   -6.2740 P.3      57   G    1.1662
   1799 C5'         7.1380  -14.1170   -5.3570 C.3      57   G    0.0558
   1800 O5'         8.5430  -14.0490   -5.1520 O.3      57   G   -0.4989
   1801 C4'         6.3830  -13.9160   -4.0660 C.3      57   G    0.1065
   1802 O4'         6.6200  -15.0420   -3.1800 O.3      57   G   -0.3548
   1803 C3'         6.7850  -12.6980   -3.2480 C.3      57   G    0.2022
   1804 O3'         6.1420  -11.5140   -3.6830 O.3      57   G   -0.5246
   1805 C2'         6.4110  -13.1000   -1.8300 C.3      57   G    0.0670
   1806 O2'         5.0160  -12.9250   -1.6180 O.3      57   G   -0.6139
   1807 C1'         6.7150  -14.6000   -1.8460 C.3      57   G    0.0191
   1808 N1          9.6060  -16.1620    2.0910 N.am     57   G   -0.4787
   1809 C2          8.2500  -15.9540    2.0360 C.2      57   G    0.7657
   1810 N2          7.5740  -16.1930    3.1690 N.pl3    57   G   -0.9672
   1811 N3          7.6050  -15.5430    0.9570 N.2      57   G   -0.6323
   1812 C4          8.4350  -15.3520   -0.0900 C.ar     57   G    0.1222
   1813 C5          9.8040  -15.5300   -0.1340 C.ar     57   G    0.1744
   1814 C6         10.4840  -15.9710    1.0320 C.2      57   G    0.4770
   1815 O6         11.6920  -16.1870    1.1900 O.2      57   G   -0.5597
   1816 N7         10.2950  -15.2270   -1.3930 N.ar     57   G   -0.5709
   1817 C8          9.2380  -14.8750   -2.0760 C.ar     57   G    0.1374
   1818 N9          8.0720  -14.9120   -1.3490 N.ar     57   G    0.0492
   1819 OP1        10.9540  -14.4450   -5.7680 O.co2    57   G   -0.7760
   1820 OP2         9.2300  -13.8930   -7.5700 O.co2    57   G   -0.7760
   1821 H5'         6.8864  -15.0954   -5.7662 H        57   G    0.0679
   1822 H5''        6.8426  -13.3453   -6.0679 H        57   G    0.0679
   1823 H4'         5.3170  -13.8577   -4.2857 H        57   G    0.1174
   1824 H3'         7.8649  -12.5639   -3.3103 H        57   G    0.0615
   1825 H2'         7.0062  -12.5711   -1.0856 H        57   G    0.0972
   1826 H1'         5.9779  -15.1247   -1.2381 H        57   G    0.2006
   1827 H1          9.9945  -16.4779    2.9682 H        57   G    0.3424
   1828 H8          9.2769  -14.5823   -3.1148 H        57   G    0.1640
   1829 H21         8.0655  -16.5065    3.9938 H        57   G    0.4364
   1830 H22         6.5733  -16.0595    3.1977 H        57   G    0.4364
   1831 HO2'        4.7803  -12.0087   -1.7805 H        57   G    0.4186
   1832 P           7.0090  -10.2400   -4.1290 P.3      58   A    1.1662
   1833 C5'         5.5460   -8.9870   -2.3510 C.3      58   A    0.0558
   1834 O5'         6.8290   -9.2460   -2.9000 O.3      58   A   -0.4989
   1835 C4'         5.6190   -8.8190   -0.8570 C.3      58   A    0.1065
   1836 O4'         6.0070  -10.0770   -0.2470 O.3      58   A   -0.3548
   1837 C3'         6.6520   -7.8170   -0.3550 C.3      58   A    0.2022
   1838 O3'         6.1730   -6.4810   -0.3610 O.3      58   A   -0.5246
   1839 C2'         6.9860   -8.3310    1.0390 C.3      58   A    0.0670
   1840 O2'         6.0150   -7.8950    1.9770 O.3      58   A   -0.6139
   1841 C1'         6.8490   -9.8450    0.8590 C.3      58   A    0.0394
   1842 N1         10.3990  -13.1380    2.6310 N.ar     58   A   -0.7615
   1843 C2          9.2350  -12.7170    3.1330 C.ar     58   A    0.5875
   1844 N3          8.3610  -11.8580    2.6170 N.ar     58   A   -0.6997
   1845 C4          8.7820  -11.3980    1.4270 C.ar     58   A    0.3053
   1846 C5          9.9530  -11.7370    0.7830 C.ar     58   A    0.0515
   1847 C6         10.7920  -12.6580    1.4330 C.ar     58   A    0.7009
   1848 N6         11.9520  -13.0790    0.9310 N.pl3    58   A   -0.9019
   1849 N7         10.0590  -11.0670   -0.4280 N.ar     58   A   -0.6073
   1850 C8          8.9630  -10.3470   -0.4870 C.ar     58   A    0.2006
   1851 N9          8.1470  -10.4970    0.6040 N.ar     58   A   -0.0251
   1852 OP1         6.3620   -9.6700   -5.3410 O.co2    58   A   -0.7760
   1853 OP2         8.4210  -10.6820   -4.2180 O.co2    58   A   -0.7760
   1854 H5'         4.8846   -9.8217   -2.5832 H        58   A    0.0679
   1855 H5''        5.1434   -8.0765   -2.7948 H        58   A    0.0679
   1856 H4'         4.6359   -8.5321   -0.4838 H        58   A    0.1174
   1857 H3'         7.5424   -7.8793   -0.9807 H        58   A    0.0615
   1858 H2'         7.9947   -8.0501    1.3419 H        58   A    0.0972
   1859 H1'         6.3979  -10.2757    1.7530 H        58   A    0.2007
   1860 H2          8.9659  -13.1327    4.0928 H        58   A    0.0473
   1861 H8          8.7265   -9.6976   -1.3170 H        58   A    0.1553
   1862 HO2'        5.1782   -7.7516    1.5288 H        58   A    0.4186
   1863 H61        12.5137  -13.7426    1.4451 H        58   A    0.4115
   1864 H62        12.2698  -12.7346    0.0363 H        58   A    0.4115
   1865 P           7.0840   -5.2950   -0.9550 P.3      59   U    1.1662
   1866 C5'         8.4660   -5.1890    1.2870 C.3      59   U    0.0558
   1867 O5'         8.4390   -5.4310   -0.1200 O.3      59   U   -0.4989
   1868 C4'         8.3140   -3.7220    1.6020 C.3      59   U    0.1065
   1869 O4'         7.9490   -3.5600    2.9990 O.3      59   U   -0.3548
   1870 C3'         9.5630   -2.8660    1.3900 C.3      59   U    0.2022
   1871 O3'         9.1630   -1.5750    0.9370 O.3      59   U   -0.5246
   1872 C2'        10.1240   -2.7420    2.8000 C.3      59   U    0.0670
   1873 O2'        10.9520   -1.6180    3.0040 O.3      59   U   -0.6139
   1874 C1'         8.8370   -2.6460    3.6060 C.3      59   U    0.0674
   1875 N1          8.9730   -2.9980    5.0300 N.am     59   U    0.0418
   1876 C2          8.1440   -2.2950    5.8760 C.2      59   U    0.4687
   1877 O2          7.3620   -1.4520    5.4650 O.2      59   U   -0.5477
   1878 N3          8.2560   -2.6110    7.2010 N.am     59   U   -0.3549
   1879 C4          9.1000   -3.5430    7.7510 C.2      59   U    0.5952
   1880 O4          9.0870   -3.7190    8.9690 O.2      59   U   -0.5761
   1881 C5          9.9290   -4.2300    6.8090 C.2      59   U   -0.3635
   1882 C6          9.8450   -3.9440    5.5050 C.2      59   U   -0.1126
   1883 OP1         7.3390   -5.6130   -2.3820 O.co2    59   U   -0.7760
   1884 OP2         6.4060   -4.0130   -0.6220 O.co2    59   U   -0.7760
   1885 H5'         7.6490   -5.7376    1.7557 H        59   U    0.0679
   1886 H5''        9.4134   -5.5447    1.6921 H        59   U    0.0679
   1887 H4'         7.5103   -3.3183    0.9862 H        59   U    0.1174
   1888 H3'        10.2709   -3.3374    0.7082 H        59   U    0.0615
   1889 H2'        10.6616   -3.6520    3.0666 H        59   U    0.0972
   1890 H1'         8.4317   -1.6378    3.5204 H        59   U    0.1824
   1891 H3          7.6571   -2.1078    7.8399 H        59   U    0.3154
   1892 H5         10.6246   -4.9817    7.1517 H        59   U    0.1811
   1893 H6         10.4800   -4.4714    4.8085 H        59   U    0.2188
   1894 HO2'       11.7034   -1.8683    3.5465 H        59   U    0.4186
   1895 P          10.0010   -0.8210   -0.2020 P.3      60   U    1.1662
   1896 C5'        10.2700    1.2620    1.3580 C.3      60   U    0.0558
   1897 O5'         9.7700    0.7100    0.1510 O.3      60   U   -0.4989
   1898 C4'         9.2170    2.0620    2.0780 C.3      60   U    0.1065
   1899 O4'         8.4970    1.2040    3.0040 O.3      60   U   -0.3548
   1900 C3'         9.7300    3.1980    2.9490 C.3      60   U    0.2022
   1901 O3'        10.0100    4.3740    2.2130 O.3      60   U   -0.5246
   1902 C2'         8.6140    3.3670    3.9690 C.3      60   U    0.0670
   1903 O2'         7.5190    4.0670    3.4010 O.3      60   U   -0.6139
   1904 C1'         8.1940    1.9170    4.1860 C.3      60   U    0.0674
   1905 N1          8.9220    1.2900    5.3070 N.am     60   U    0.0418
   1906 C2          8.5130    1.5780    6.5920 C.2      60   U    0.4687
   1907 O2          7.5920    2.3360    6.8310 O.2      60   U   -0.5477
   1908 N3          9.2270    0.9530    7.5860 N.am     60   U   -0.3549
   1909 C4         10.2880    0.0820    7.4280 C.2      60   U    0.5952
   1910 O4         10.8400   -0.4060    8.4170 O.2      60   U   -0.5761
   1911 C5         10.6440   -0.1650    6.0640 C.2      60   U   -0.3635
   1912 C6          9.9670    0.4310    5.0760 C.2      60   U   -0.1126
   1913 OP1        11.4300   -1.1760   -0.0000 O.co2    60   U   -0.7760
   1914 OP2         9.3600   -1.1430   -1.5000 O.co2    60   U   -0.7760
   1915 H5'        10.6036    0.4517    2.0062 H        60   U    0.0679
   1916 H5''       11.1170    1.9093    1.1307 H        60   U    0.0679
   1917 H4'         8.5150    2.4639    1.3474 H        60   U    0.1174
   1918 H3'        10.6357    2.8737    3.4615 H        60   U    0.0615
   1919 H2'         8.9664    3.8338    4.8888 H        60   U    0.0972
   1920 H1'         7.1216    1.8715    4.3756 H        60   U    0.1824
   1921 H3          8.9456    1.1519    8.5354 H        60   U    0.3154
   1922 H5         11.4601   -0.8333    5.8320 H        60   U    0.1811
   1923 H6         10.2546    0.2279    4.0550 H        60   U    0.2188
   1924 HO2'        6.7689    4.0271    3.9988 H        60   U    0.4186
   1925 P          11.1460    5.3900    2.7190 P.3      61   U    1.1662
   1926 C5'         9.3250    6.7740    3.9870 C.3      61   U    0.0558
   1927 O5'        10.5100    5.9980    4.0430 O.3      61   U   -0.4989
   1928 C4'         8.7770    7.0520    5.3630 C.3      61   U    0.1065
   1929 O4'         8.4040    5.8050    6.0080 O.3      61   U   -0.3548
   1930 C3'         9.7400    7.6900    6.3510 C.3      61   U    0.2022
   1931 O3'         9.8980    9.0850    6.1600 O.3      61   U   -0.5246
   1932 C2'         9.1230    7.3170    7.6900 C.3      61   U    0.0670
   1933 O2'         7.9900    8.1270    7.9640 O.3      61   U   -0.6139
   1934 C1'         8.6430    5.8970    7.3990 C.3      61   U    0.0674
   1935 N1          9.6590    4.8910    7.7730 N.am     61   U    0.0418
   1936 C2          9.6000    4.3920    9.0600 C.2      61   U    0.4687
   1937 O2          8.7500    4.7440    9.8610 O.2      61   U   -0.5477
   1938 N3         10.5650    3.4660    9.3750 N.am     61   U   -0.3549
   1939 C4         11.5680    3.0000    8.5510 C.2      61   U    0.5952
   1940 O4         12.3650    2.1610    8.9790 O.2      61   U   -0.5761
   1941 C5         11.5650    3.5700    7.2360 C.2      61   U   -0.3635
   1942 C6         10.6360    4.4750    6.8990 C.2      61   U   -0.1126
   1943 OP1        11.2720    6.4490    1.6890 O.co2    61   U   -0.7760
   1944 OP2        12.3420    4.5780    3.0580 O.co2    61   U   -0.7760
   1945 H5'         9.5462    7.7220    3.4966 H        61   U    0.0679
   1946 H5''        8.5747    6.2381    3.4057 H        61   U    0.0679
   1947 H4'         7.8927    7.6827    5.2719 H        61   U    0.1174
   1948 H3'        10.7129    7.2068    6.2613 H        61   U    0.0615
   1949 H2'         9.8524    7.3453    8.4995 H        61   U    0.0972
   1950 H1'         7.7185    5.7040    7.9432 H        61   U    0.1824
   1951 H3         10.5368    3.0858   10.3103 H        61   U    0.3154
   1952 H5         12.3121    3.2699    6.5161 H        61   U    0.1811
   1953 H6         10.6552    4.8935    5.9036 H        61   U    0.2188
   1954 HO2'        8.2752    9.0247    8.1494 H        61   U    0.4186
   1955 P          11.3640    9.7440    6.2170 P.3      62   G    1.1662
   1956 C5'        10.8330   10.8160    8.5460 C.3      62   G    0.0558
   1957 O5'        11.6140    9.9130    7.7790 O.3      62   G   -0.4989
   1958 C4'        10.9380   10.5290   10.0210 C.3      62   G    0.1065
   1959 O4'        10.4110    9.2060   10.3070 O.3      62   G   -0.3548
   1960 C3'        12.3430   10.4860   10.5990 C.3      62   G    0.2022
   1961 O3'        12.8920   11.7690   10.8320 O.3      62   G   -0.5246
   1962 C2'        12.1430    9.6650   11.8620 C.3      62   G    0.0670
   1963 O2'        11.5220   10.4450   12.8730 O.3      62   G   -0.6139
   1964 C1'        11.1370    8.6250   11.3720 C.3      62   G    0.0191
   1965 N1         13.9810    4.6600   12.6990 N.am     62   G   -0.4787
   1966 C2         13.4730    5.6870   13.4630 C.2      62   G    0.7657
   1967 N2         13.7580    5.6640   14.7740 N.pl3    62   G   -0.9672
   1968 N3         12.7350    6.6690   12.9800 N.2      62   G   -0.6323
   1969 C4         12.5390    6.5450   11.6520 C.ar     62   G    0.1222
   1970 C5         12.9990    5.5680   10.7960 C.ar     62   G    0.1744
   1971 C6         13.7950    4.5120   11.3240 C.2      62   G    0.4770
   1972 O6         14.3020    3.5450   10.7300 O.2      62   G   -0.5597
   1973 N7         12.5680    5.8190    9.5000 N.ar     62   G   -0.5709
   1974 C8         11.8710    6.9200    9.5960 C.ar     62   G    0.1374
   1975 N9         11.8130    7.4110   10.8760 N.ar     62   G    0.0492
   1976 OP1        11.2690   11.0760    5.5740 O.co2    62   G   -0.7760
   1977 OP2        12.3110    8.7490    5.6600 O.co2    62   G   -0.7760
   1978 H5'        11.1812   11.8317    8.3582 H        62   G    0.0679
   1979 H5''        9.7900   10.7342    8.2401 H        62   G    0.0679
   1980 H4'        10.3531   11.2686   10.5678 H        62   G    0.1174
   1981 H3'        12.9930    9.9383    9.9166 H        62   G    0.0615
   1982 H2'        13.0709    9.2087   12.2068 H        62   G    0.0972
   1983 H1'        10.4558    8.3622   12.1813 H        62   G    0.2006
   1984 H1         14.5322    3.9579   13.1716 H        62   G    0.3424
   1985 H8         11.3897    7.3951    8.7539 H        62   G    0.1640
   1986 H21        14.3212    4.9173   15.1553 H        62   G    0.4364
   1987 H22        13.4093    6.3933   15.3795 H        62   G    0.4364
   1988 HO2'       11.2575    9.8754   13.5991 H        62   G    0.4186
   1989 P          14.4870   11.9680   10.8410 P.3      63   G    1.1662
   1990 C5'        14.5170   11.7930   13.4540 C.3      63   G    0.0558
   1991 O5'        14.9230   11.2680   12.1980 O.3      63   G   -0.4989
   1992 C4'        15.1440   11.0290   14.5890 C.3      63   G    0.1065
   1993 O4'        14.6000    9.6840   14.6280 O.3      63   G   -0.3548
   1994 C3'        16.6480   10.8230   14.4920 C.3      63   G    0.2022
   1995 O3'        17.3940   11.9370   14.9470 O.3      63   G   -0.5246
   1996 C2'        16.8680    9.5610   15.3120 C.3      63   G    0.0670
   1997 O2'        16.8500    9.8560   16.7010 O.3      63   G   -0.6139
   1998 C1'        15.6130    8.7610   14.9670 C.3      63   G    0.0191
   1999 N1         17.4820    4.3040   13.3090 N.am     63   G   -0.4787
   2000 C2         17.4630    4.8190   14.5850 C.2      63   G    0.7657
   2001 N2         18.0070    4.0560   15.5470 N.pl3    63   G   -0.9672
   2002 N3         16.9470    5.9970   14.8990 N.2      63   G   -0.6323
   2003 C4         16.4400    6.6310   13.8190 C.ar     63   G    0.1222
   2004 C5         16.4120    6.2040   12.5060 C.ar     63   G    0.1744
   2005 C6         16.9690    4.9390   12.1820 C.2      63   G    0.4770
   2006 O6         17.0380    4.3860   11.0770 O.2      63   G   -0.5597
   2007 N7         15.8010    7.1500   11.6940 N.ar     63   G   -0.5709
   2008 C8         15.4760    8.1190   12.5070 C.ar     63   G    0.1374
   2009 N9         15.8340    7.8690   13.8120 N.ar     63   G    0.0492
   2010 OP1        15.0280   11.2090    9.6880 O.co2    63   G   -0.7760
   2011 OP2        14.7460   13.4250   10.9190 O.co2    63   G   -0.7760
   2012 H5'        13.4322   11.7237   13.5348 H        63   G    0.0679
   2013 H5''       14.8151   12.8395   13.5184 H        63   G    0.0679
   2014 H4'        14.9137   11.5333   15.5275 H        63   G    0.1174
   2015 H3'        16.9113   10.6209   13.4538 H        63   G    0.0615
   2016 H2'        17.7781    9.0379   15.0184 H        63   G    0.0972
   2017 H1'        15.3018    8.1739   15.8311 H        63   G    0.2006
   2018 H1         17.9010    3.3941   13.1804 H        63   G    0.3424
   2019 H8         14.9780    9.0227   12.1882 H        63   G    0.1640
   2020 H21        18.4021    3.1560   15.3147 H        63   G    0.4364
   2021 H22        18.0211    4.3822   16.5028 H        63   G    0.4364
   2022 HO2'       17.5381    9.3537   17.1435 H        63   G    0.4186
   2023 P          18.9020   12.1540   14.4410 P.3      64   U    1.1662
   2024 C5'        19.7940   10.7040   16.4350 C.3      64   U    0.0558
   2025 O5'        19.6600   10.8840   15.0330 O.3      64   U   -0.4989
   2026 C4'        20.5840    9.4640   16.7570 C.3      64   U    0.1065
   2027 O4'        19.8430    8.2890   16.3420 O.3      64   U   -0.3548
   2028 C3'        21.9200    9.3290   16.0470 C.3      64   U    0.2022
   2029 O3'        22.9510   10.0810   16.6610 O.3      64   U   -0.5246
   2030 C2'        22.1640    7.8220   16.0580 C.3      64   U    0.0670
   2031 O2'        22.6870    7.4020   17.3100 O.3      64   U   -0.6139
   2032 C1'        20.7380    7.2780   15.9190 C.3      64   U    0.0674
   2033 N1         20.4130    6.9110   14.5210 N.am     64   U    0.0418
   2034 C2         20.8570    5.6800   14.0660 C.2      64   U    0.4687
   2035 O2         21.5030    4.9120   14.7610 O.2      64   U   -0.5477
   2036 N3         20.5260    5.3870   12.7660 N.am     64   U   -0.3549
   2037 C4         19.8060    6.1780   11.8960 C.2      64   U    0.5952
   2038 O4         19.5860    5.7730   10.7520 O.2      64   U   -0.5761
   2039 C5         19.3780    7.4330   12.4430 C.2      64   U   -0.3635
   2040 C6         19.6860    7.7490   13.7060 C.2      64   U   -0.1126
   2041 OP1        18.8790   12.0840   12.9590 O.co2    64   U   -0.7760
   2042 OP2        19.4070   13.3900   15.0880 O.co2    64   U   -0.7760
   2043 H5'        18.8017   10.6169   16.8776 H        64   U    0.0679
   2044 H5''       20.3002   11.5708   16.8600 H        64   U    0.0679
   2045 H4'        20.7483    9.4178   17.8336 H        64   U    0.1174
   2046 H3'        21.8069    9.6612   15.0150 H        64   U    0.0615
   2047 H2'        22.7988    7.5090   15.2290 H        64   U    0.0972
   2048 H1'        20.6218    6.4027   16.5581 H        64   U    0.1824
   2049 H3         20.8438    4.4972   12.4091 H        64   U    0.3154
   2050 H5         18.8083    8.1215   11.8365 H        64   U    0.1811
   2051 H6         19.3518    8.6970   14.1009 H        64   U    0.2188
   2052 HO2'       22.6971    6.4428   17.3470 H        64   U    0.4186
   2053 P          24.0370   10.8420   15.7530 P.3      65   G    1.1662
   2054 C5'        25.5480    8.7180   15.9410 C.3      65   G    0.0558
   2055 O5'        24.8610    9.6450   15.1180 O.3      65   G   -0.4989
   2056 C4'        26.1970    7.6440   15.1180 C.3      65   G    0.1065
   2057 O4'        25.1810    6.7500   14.5890 O.3      65   G   -0.3548
   2058 C3'        26.9440    8.1250   13.8840 C.3      65   G    0.2022
   2059 O3'        28.2470    8.5960   14.1760 O.3      65   G   -0.5246
   2060 C2'        26.9230    6.9010   12.9840 C.3      65   G    0.0670
   2061 O2'        27.9020    5.9600   13.4000 O.3      65   G   -0.6139
   2062 C1'        25.5380    6.3290   13.2900 C.3      65   G    0.0191
   2063 N1         22.8770    5.3820    9.0320 N.am     65   G   -0.4787
   2064 C2         23.8370    4.6210    9.6510 C.2      65   G    0.7657
   2065 N2         24.1320    3.4540    9.0690 N.pl3    65   G   -0.9672
   2066 N3         24.4620    4.9700   10.7610 N.2      65   G   -0.6323
   2067 C4         24.0480    6.1700   11.2160 C.ar     65   G    0.1222
   2068 C5         23.0970    7.0110   10.6710 C.ar     65   G    0.1744
   2069 C6         22.4310    6.6210    9.4770 C.2      65   G    0.4770
   2070 O6         21.5580    7.2250    8.8370 O.2      65   G   -0.5597
   2071 N7         22.9640    8.1540   11.4470 N.ar     65   G   -0.5709
   2072 C8         23.8150    7.9940   12.4230 C.ar     65   G    0.1374
   2073 N9         24.5130    6.8150   12.3430 N.ar     65   G    0.0492
   2074 OP1        24.9070   11.6190   16.6670 O.co2    65   G   -0.7760
   2075 OP2        23.2900   11.5610   14.6890 O.co2    65   G   -0.7760
   2076 H5'        24.8385    8.2591   16.6296 H        65   G    0.0679
   2077 H5''       26.3131    9.2438   16.5121 H        65   G    0.0679
   2078 H4'        26.8796    7.0747   15.7489 H        65   G    0.1174
   2079 H3'        26.3737    8.9246   13.4114 H        65   G    0.0615
   2080 H2'        27.0321    7.1657   11.9323 H        65   G    0.0972
   2081 H1'        25.5777    5.2402   13.2575 H        65   G    0.2006
   2082 H1         22.4626    5.0132    8.1880 H        65   G    0.3424
   2083 H8         23.9559    8.7161   13.2137 H        65   G    0.1640
   2084 H21        23.6577    3.1785    8.2209 H        65   G    0.4364
   2085 H22        24.8291    2.8480    9.4774 H        65   G    0.4364
   2086 HO2'       28.5784    5.8816   12.7233 H        65   G    0.4186
   2087 P          28.9110    9.7380   13.2620 P.3      66   A    1.1662
   2088 C5'        29.5710    9.6960   10.7210 C.3      66   A    0.0558
   2089 O5'        28.9480    9.0530   11.8240 O.3      66   A   -0.4989
   2090 C4'        30.1110    8.6890    9.7360 C.3      66   A    0.1065
   2091 O4'        31.2760    8.0340   10.2980 O.3      66   A   -0.3548
   2092 C3'        29.1720    7.5460    9.3740 C.3      66   A    0.2022
   2093 O3'        28.2460    7.9000    8.3590 O.3      66   A   -0.5246
   2094 C2'        30.1260    6.4300    8.9680 C.3      66   A    0.0670
   2095 O2'        30.5500    6.5940    7.6240 O.3      66   A   -0.6139
   2096 C1'        31.3220    6.6870    9.8880 C.3      66   A    0.0394
   2097 N1         32.3320    2.0330   11.8570 N.ar     66   A   -0.7615
   2098 C2         32.4610    2.5360   10.6220 C.ar     66   A    0.5875
   2099 N3         32.1780    3.7570   10.1740 N.ar     66   A   -0.6997
   2100 C4         31.7040    4.5250   11.1680 C.ar     66   A    0.3053
   2101 C5         31.5140    4.1540   12.4860 C.ar     66   A    0.0515
   2102 C6         31.8510    2.8350   12.8310 C.ar     66   A    0.7009
   2103 N6         31.7230    2.3340   14.0610 N.pl3    66   A   -0.9019
   2104 N7         31.0040    5.2140   13.2250 N.ar     66   A   -0.6073
   2105 C8         30.9000    6.1870   12.3530 C.ar     66   A    0.2006
   2106 N9         31.2980    5.8340   11.0890 N.ar     66   A   -0.0251
   2107 OP1        30.2950    9.9450   13.7600 O.co2    66   A   -0.7760
   2108 OP2        27.9730   10.8880   13.2520 O.co2    66   A   -0.7760
   2109 H5'        28.8389   10.3277   10.2180 H        66   A    0.0679
   2110 H5''       30.3902   10.3166   11.0842 H        66   A    0.0679
   2111 H4'        30.4034    9.2087    8.8236 H        66   A    0.1174
   2112 H3'        28.6240    7.2395   10.2650 H        66   A    0.0615
   2113 H2'        29.6907    5.4451    9.1369 H        66   A    0.0972
   2114 H1'        32.2456    6.5088    9.3373 H        66   A    0.2007
   2115 H2         32.8510    1.8518    9.8830 H        66   A    0.0473
   2116 H8         30.5359    7.1719   12.6056 H        66   A    0.1553
   2117 H61        31.9833    1.3757   14.2456 H        66   A    0.4115
   2118 H62        31.3658    2.9130   14.8075 H        66   A    0.4115
   2119 HO2'       29.8102    6.4360    7.0330 H        66   A    0.4186
   2120 P          26.6720    7.6490    8.5700 P.3      67   A    1.1662
   2121 C5'        27.1100    6.0360    6.5540 C.3      67   A    0.0558
   2122 O5'        26.4190    6.3050    7.7640 O.3      67   A   -0.4989
   2123 C4'        27.5330    4.5930    6.4800 C.3      67   A    0.1065
   2124 O4'        28.5620    4.3410    7.4660 O.3      67   A   -0.3548
   2125 C3'        26.4440    3.5700    6.7820 C.3      67   A    0.2022
   2126 O3'        25.6620    3.2570    5.6400 O.3      67   A   -0.5246
   2127 C2'        27.2170    2.3750    7.3350 C.3      67   A    0.0670
   2128 O2'        27.6930    1.5520    6.2800 O.3      67   A   -0.6139
   2129 C1'        28.4140    3.0500    8.0110 C.3      67   A    0.0394
   2130 N1         28.9050    0.7660   12.6160 N.ar     67   A   -0.7615
   2131 C2         29.1470    0.3420   11.3680 C.ar     67   A    0.5875
   2132 N3         28.9980    0.9800   10.2090 N.ar     67   A   -0.6997
   2133 C4         28.5360    2.2260   10.4200 C.ar     67   A    0.3053
   2134 C5         28.2410    2.8050   11.6420 C.ar     67   A    0.0515
   2135 C6         28.4440    2.0220   12.7900 C.ar     67   A    0.7009
   2136 N6         28.2010    2.4510   14.0290 N.pl3    67   A   -0.9019
   2137 N7         27.7840    4.1030   11.4710 N.ar     67   A   -0.6073
   2138 C8         27.8130    4.2810   10.1730 C.ar     67   A    0.2006
   2139 N9         28.2440    3.1790    9.4730 N.ar     67   A   -0.0251
   2140 OP1        25.9570    8.7720    7.9180 O.co2    67   A   -0.7760
   2141 OP2        26.4580    7.4160   10.0170 O.co2    67   A   -0.7760
   2142 H5'        27.9955    6.6694    6.5016 H        67   A    0.0679
   2143 H5''       26.4574    6.2619    5.7107 H        67   A    0.0679
   2144 H4'        27.9385    4.3944    5.4879 H        67   A    0.1174
   2145 H3'        25.7925    3.9639    7.5620 H        67   A    0.0615
   2146 H2'        26.6207    1.8071    8.0491 H        67   A    0.0972
   2147 H1'        29.3139    2.4702    7.8058 H        67   A    0.2007
   2148 H2         29.5187   -0.6691   11.2908 H        67   A    0.0473
   2149 H8         27.5252    5.2070    9.6975 H        67   A    0.1553
   2150 H61        28.3646    1.8398   14.8162 H        67   A    0.4115
   2151 H62        27.8533    3.3871   14.1802 H        67   A    0.4115
   2152 HO2'       26.9506    1.1231    5.8483 H        67   A    0.4186
   2153 P          24.0860    2.9870    5.7800 P.3      68   A    1.1662
   2154 C5'        24.5380    0.6650    6.9110 C.3      68   A    0.0558
   2155 O5'        24.0130    1.9860    7.0110 O.3      68   A   -0.4989
   2156 C4'        23.4650   -0.3720    7.1240 C.3      68   A    0.1065
   2157 O4'        23.2490   -0.5400    8.5510 O.3      68   A   -0.3548
   2158 C3'        22.1140   -0.0260    6.5130 C.3      68   A    0.2022
   2159 O3'        21.5170   -1.1880    5.9490 O.3      68   A   -0.5246
   2160 C2'        21.2910    0.4640    7.7040 C.3      68   A    0.0670
   2161 O2'        19.9040    0.2310    7.5910 O.3      68   A   -0.6139
   2162 C1'        21.8940   -0.3070    8.8750 C.3      68   A    0.0394
   2163 N1         22.7490   -0.2430   14.0020 N.ar     68   A   -0.7615
   2164 C2         22.9120   -1.2060   13.0860 C.ar     68   A    0.5875
   2165 N3         22.6800   -1.1830   11.7720 N.ar     68   A   -0.6997
   2166 C4         22.2140    0.0240   11.3990 C.ar     68   A    0.3053
   2167 C5         21.9920    1.1140   12.2280 C.ar     68   A    0.0515
   2168 C6         22.2780    0.9580   13.5980 C.ar     68   A    0.7009
   2169 N6         22.1130    1.9260   14.5080 N.pl3    68   A   -0.9019
   2170 N7         21.5060    2.1940   11.5040 N.ar     68   A   -0.6073
   2171 C8         21.4470    1.7430   10.2780 C.ar     68   A    0.2006
   2172 N9         21.8570    0.4400   10.1350 N.ar     68   A   -0.0251
   2173 OP1        23.6490    2.2960    4.5420 O.co2    68   A   -0.7760
   2174 OP2        23.4480    4.2750    6.1380 O.co2    68   A   -0.7760
   2175 H5'        24.9699    0.5295    5.9194 H        68   A    0.0679
   2176 H5''       25.3173    0.5323    7.6615 H        68   A    0.0679
   2177 H4'        23.8058   -1.3197    6.7071 H        68   A    0.1174
   2178 H3'        22.2171    0.7591    5.7640 H        68   A    0.0615
   2179 H2'        21.4659    1.5303    7.8475 H        68   A    0.0972
   2180 H1'        21.3755   -1.2582    8.9956 H        68   A    0.2007
   2181 H2         23.2882   -2.1433   13.4685 H        68   A    0.0473
   2182 H8         21.1050    2.3440    9.4484 H        68   A    0.1553
   2183 H61        22.3380    1.7518   15.4771 H        68   A    0.4115
   2184 H62        21.7635    2.8305   14.2254 H        68   A    0.4115
   2185 HO2'       19.5159    0.8875    7.0079 H        68   A    0.4186
   2186 P          20.6330   -1.0540    4.6150 P.3      69   U    1.1662
   2187 C5'        18.3130    0.1100    4.2370 C.3      69   U    0.0558
   2188 O5'        19.3820   -0.2090    5.1160 O.3      69   U   -0.4989
   2189 C4'        16.9800   -0.2790    4.8200 C.3      69   U    0.1065
   2190 O4'        16.0330   -0.4530    3.7370 O.3      69   U   -0.3548
   2191 C3'        16.9790   -1.5900    5.6020 C.3      69   U    0.2022
   2192 O3'        16.0180   -1.5250    6.6580 O.3      69   U   -0.5246
   2193 C2'        16.5270   -2.6080    4.5610 C.3      69   U    0.0670
   2194 O2'        15.8950   -3.7480    5.0960 O.3      69   U   -0.6139
   2195 C1'        15.5670   -1.7890    3.7010 C.3      69   U    0.0674
   2196 N1         15.5320   -2.2160    2.2880 N.am     69   U    0.0418
   2197 C2         14.3200   -2.2070    1.6300 C.2      69   U    0.4687
   2198 O2         13.2840   -1.8640    2.1650 O.2      69   U   -0.5477
   2199 N3         14.3660   -2.6090    0.3190 N.am     69   U   -0.3549
   2200 C4         15.4830   -3.0100   -0.3810 C.2      69   U    0.5952
   2201 O4         15.3720   -3.3470   -1.5600 O.2      69   U   -0.5761
   2202 C5         16.6990   -2.9940    0.3720 C.2      69   U   -0.3635
   2203 C6         16.6840   -2.6060    1.6490 C.2      69   U   -0.1126
   2204 OP1        20.2020   -2.4210    4.2320 O.co2    69   U   -0.7760
   2205 OP2        21.4250   -0.2570    3.6440 O.co2    69   U   -0.7760
   2206 H5'        18.3173    1.1839    4.0503 H        69   U    0.0679
   2207 H5''       18.4573   -0.4167    3.2937 H        69   U    0.0679
   2208 H4'        16.6305    0.5223    5.4711 H        69   U    0.1174
   2209 H3'        17.9726   -1.8260    5.9831 H        69   U    0.0615
   2210 H2'        17.3818   -2.9156    3.9587 H        69   U    0.0972
   2211 H1'        14.5635   -1.8385    4.1236 H        69   U    0.1824
   2212 H3         13.4907   -2.6112   -0.1850 H        69   U    0.3154
   2213 H5         17.6268   -3.2951   -0.0915 H        69   U    0.1811
   2214 H6         17.6124   -2.5983    2.2007 H        69   U    0.2188
   2215 HO2'       15.7078   -4.3708    4.3899 H        69   U    0.4186
   2216 P          16.4940   -1.2780    8.1770 P.3      70   U    1.1662
   2217 C5'        16.5820   -3.8710    8.5370 C.3      70   U    0.0558
   2218 O5'        17.2690   -2.6250    8.5320 O.3      70   U   -0.4989
   2219 C4'        17.2600   -4.8980    9.4150 C.3      70   U    0.1065
   2220 O4'        18.4210   -5.4390    8.7250 O.3      70   U   -0.3548
   2221 C3'        17.7640   -4.3880   10.7680 C.3      70   U    0.2022
   2222 O3'        17.5880   -5.4110   11.7470 O.3      70   U   -0.5246
   2223 C2'        19.2550   -4.1890   10.5110 C.3      70   U    0.0670
   2224 O2'        20.0630   -4.2350   11.6670 O.3      70   U   -0.6139
   2225 C1'        19.5470   -5.3510    9.5710 C.3      70   U    0.0674
   2226 N1         20.7510   -5.1730    8.7380 N.am     70   U    0.0418
   2227 C2         21.6750   -6.1960    8.7920 C.2      70   U    0.4687
   2228 O2         21.5170   -7.1900    9.4790 O.2      70   U   -0.5477
   2229 N3         22.7860   -6.0140    8.0140 N.am     70   U   -0.3549
   2230 C4         23.0570   -4.9310    7.2080 C.2      70   U    0.5952
   2231 O4         24.1070   -4.9150    6.5670 O.2      70   U   -0.5761
   2232 C5         22.0520   -3.9130    7.2060 C.2      70   U   -0.3635
   2233 C6         20.9540   -4.0620    7.9560 C.2      70   U   -0.1126
   2234 OP1        17.4420   -0.1380    8.1580 O.co2    70   U   -0.7760
   2235 OP2        15.2670   -1.1700    9.0070 O.co2    70   U   -0.7760
   2236 H5'        15.5684   -3.7105    8.9045 H        70   U    0.0679
   2237 H5''       16.5331   -4.2531    7.5173 H        70   U    0.0679
   2238 H4'        16.5580   -5.7121    9.5953 H        70   U    0.1174
   2239 H3'        17.2747   -3.4586   11.0594 H        70   U    0.0615
   2240 H2'        19.4147   -3.2456    9.9889 H        70   U    0.0972
   2241 H1'        19.6388   -6.2705   10.1490 H        70   U    0.1824
   2242 H3         23.4781   -6.7494    8.0329 H        70   U    0.3154
   2243 H5         22.1791   -3.0273    6.6012 H        70   U    0.1811
   2244 H6         20.2042   -3.2848    7.9463 H        70   U    0.2188
   2245 HO2'       20.1105   -5.1381   11.9891 H        70   U    0.4186
   2246 P          17.0730   -5.0440   13.2260 P.3      71   C    1.1662
   2247 C5'        18.7980   -4.7710   15.1850 C.3      71   C    0.0558
   2248 O5'        18.3610   -4.3850   13.8900 O.3      71   C   -0.4989
   2249 C4'        19.2670   -3.5780   15.9790 C.3      71   C    0.1065
   2250 O4'        19.9990   -2.6800   15.1120 O.3      71   C   -0.3548
   2251 C3'        18.1700   -2.7230   16.5920 C.3      71   C    0.2022
   2252 O3'        17.7530   -3.2150   17.8520 O.3      71   C   -0.5246
   2253 C2'        18.7960   -1.3320   16.6630 C.3      71   C    0.0670
   2254 O2'        19.5590   -1.1840   17.8510 O.3      71   C   -0.6139
   2255 C1'        19.7530   -1.3420   15.4700 C.3      71   C    0.0066
   2256 N1         19.2100   -0.6350   14.2910 N.am     71   C   -0.0484
   2257 C2         18.8470    0.7110   14.3680 C.2      71   C    0.7538
   2258 O2         18.9580    1.3030   15.4520 O.2      71   C   -0.6252
   2259 N3         18.3720    1.3280   13.2600 N.2      71   C   -0.7584
   2260 C4         18.2680    0.6590   12.1100 C.2      71   C    0.8185
   2261 N4         17.7960    1.3090   11.0410 N.pl3    71   C   -0.9530
   2262 C5         18.6460   -0.7100   12.0000 C.2      71   C   -0.5215
   2263 C6         19.1110   -1.3040   13.1050 C.2      71   C    0.0053
   2264 OP1        16.0040   -4.0230   13.0780 O.co2    71   C   -0.7760
   2265 OP2        16.7470   -6.3260   13.9090 O.co2    71   C   -0.7760
   2266 H5'        19.6213   -5.4785   15.0863 H        71   C    0.0679
   2267 H5''       17.9741   -5.2513   15.7128 H        71   C    0.0679
   2268 H4'        19.9310   -3.9214   16.7722 H        71   C    0.1174
   2269 H3'        17.3152   -2.6976   15.9161 H        71   C    0.0615
   2270 H2'        18.0445   -0.5482   16.5683 H        71   C    0.0972
   2271 H1'        20.6925   -0.8740   15.7638 H        71   C    0.2029
   2272 H5         18.5610   -1.2450   11.0657 H        71   C    0.1928
   2273 H6         19.4158   -2.3390   13.0576 H        71   C    0.1958
   2274 H41        17.5286    2.2799   11.1177 H        71   C    0.4234
   2275 H42        17.7069    0.8290   10.1568 H        71   C    0.4234
   2276 HO2'       18.9715   -1.1759   18.6102 H        71   C    0.4186
   2277 P          16.2030   -3.2170   18.2580 P.3      72   C    1.1662
   2278 C5'        16.3620   -1.1070   19.8030 C.3      72   C    0.0558
   2279 O5'        15.9230   -1.6830   18.5840 O.3      72   C   -0.4989
   2280 C4'        15.8380    0.2960   19.9660 C.3      72   C    0.1065
   2281 O4'        16.4680    1.1710   18.9970 O.3      72   C   -0.3548
   2282 C3'        14.3500    0.4800   19.7180 C.3      72   C    0.2022
   2283 O3'        13.5590    0.1280   20.8380 O.3      72   C   -0.5246
   2284 C2'        14.2550    1.9510   19.3450 C.3      72   C    0.0670
   2285 O2'        14.3170    2.7670   20.5060 O.3      72   C   -0.6139
   2286 C1'        15.5440    2.1400   18.5520 C.3      72   C    0.0066
   2287 N1         15.3340    1.9500   17.1080 N.am     72   C   -0.0484
   2288 C2         14.8370    3.0210   16.3740 C.2      72   C    0.7538
   2289 O2         14.5910    4.0780   16.9650 O.2      72   C   -0.6252
   2290 N3         14.6300    2.8840   15.0480 N.2      72   C   -0.7584
   2291 C4         14.9090    1.7240   14.4590 C.2      72   C    0.8185
   2292 N4         14.6930    1.6290   13.1460 N.pl3    72   C   -0.9530
   2293 C5         15.4210    0.6090   15.1850 C.2      72   C   -0.5215
   2294 C6         15.6180    0.7640   16.5000 C.2      72   C    0.0053
   2295 OP1        15.4290   -3.6340   17.0550 O.co2    72   C   -0.7760
   2296 OP2        16.0820   -4.0250   19.4960 O.co2    72   C   -0.7760
   2297 H5'        17.4517   -1.0820   19.8115 H        72   C    0.0679
   2298 H5''       16.0116   -1.7187   20.6344 H        72   C    0.0679
   2299 H4'        16.0762    0.6488   20.9694 H        72   C    0.1174
   2300 H3'        14.0513   -0.1267   18.8631 H        72   C    0.0615
   2301 H2'        13.3710    2.1633   18.7437 H        72   C    0.0972
   2302 H1'        15.9433    3.1375   18.7354 H        72   C    0.2029
   2303 H5         15.6418   -0.3263   14.6922 H        72   C    0.1928
   2304 H6         16.0053   -0.0578   17.0839 H        72   C    0.1958
   2305 H41        14.3301    2.4212   12.6353 H        72   C    0.4234
   2306 H42        14.8923    0.7649   12.6626 H        72   C    0.4234
   2307 HO2'       14.4105    3.6865   20.2463 H        72   C    0.4186
   2308 P          12.0530   -0.3850   20.6340 P.3      73   A    1.1662
   2309 C5'        11.0230    2.0200   20.7830 C.3      73   A    0.0558
   2310 O5'        11.3330    0.8810   19.9940 O.3      73   A   -0.4989
   2311 C4'        10.2300    3.0340   20.0030 C.3      73   A    0.1065
   2312 O4'        11.0480    3.5840   18.9390 O.3      73   A   -0.3548
   2313 C3'         8.9970    2.5070   19.2790 C.3      73   A    0.2022
   2314 O3'         7.8710    2.3720   20.1330 O.3      73   A   -0.5246
   2315 C2'         8.7980    3.5260   18.1660 C.3      73   A    0.0670
   2316 O2'         8.1490    4.6910   18.6600 O.3      73   A   -0.6139
   2317 C1'        10.2460    3.8860   17.8190 C.3      73   A    0.0394
   2318 N1         10.7260    3.7450   12.7030 N.ar     73   A   -0.7615
   2319 C2         10.1820    4.6420   13.5330 C.ar     73   A    0.5875
   2320 N3         10.0890    4.6170   14.8600 N.ar     73   A   -0.6997
   2321 C4         10.6480    3.4990   15.3480 C.ar     73   A    0.3053
   2322 C5         11.2480    2.4850   14.6250 C.ar     73   A    0.0515
   2323 C6         11.2800    2.6310   13.2310 C.ar     73   A    0.7009
   2324 N6         11.8260    1.7280   12.4150 N.pl3    73   A   -0.9019
   2325 N7         11.7130    1.4860   15.4650 N.ar     73   A   -0.6073
   2326 C8         11.3900    1.9110   16.6640 C.ar     73   A    0.2006
   2327 N9         10.7430    3.1210   16.6640 N.ar     73   A   -0.0251
   2328 OP1        11.5010   -0.6540   21.9840 O.co2    73   A   -0.7760
   2329 OP2        12.0980   -1.4910   19.6480 O.co2    73   A   -0.7760
   2330 H5'        10.4394    1.7034   21.6474 H        73   A    0.0679
   2331 H5''       11.9498    2.4792   21.1268 H        73   A    0.0679
   2332 H4'         9.9302    3.8404   20.6723 H        73   A    0.1174
   2333 H3'         9.2290    1.5375   18.8381 H        73   A    0.0615
   2334 H2'         8.2706    3.0982   17.3134 H        73   A    0.0972
   2335 H1'        10.3123    4.9523   17.6029 H        73   A    0.2007
   2336 H2          9.7565    5.5130   13.0568 H        73   A    0.0473
   2337 H8         11.6126    1.3601   17.5659 H        73   A    0.1553
   2338 H61        11.8222    1.8817   11.4168 H        73   A    0.4115
   2339 H62        12.2432    0.8906   12.7954 H        73   A    0.4115
   2340 HO2'        7.5049    4.9954   18.0165 H        73   A    0.4186
   2341 P           6.6830    1.3600   19.7460 P.3      74   A    1.1662
   2342 C5'         5.4290    3.1850   18.3440 C.3      74   A    0.0558
   2343 O5'         6.1390    1.9570   18.3750 O.3      74   A   -0.4989
   2344 C4'         4.9480    3.5150   16.9550 C.3      74   A    0.1065
   2345 O4'         6.0720    3.8660   16.1060 O.3      74   A   -0.3548
   2346 C3'         4.2650    2.3920   16.1930 C.3      74   A    0.2022
   2347 O3'         2.9190    2.1950   16.5880 O.3      74   A   -0.5246
   2348 C2'         4.4140    2.8420   14.7490 C.3      74   A    0.0670
   2349 O2'         3.4720    3.8610   14.4440 O.3      74   A   -0.6139
   2350 C1'         5.8090    3.4690   14.7760 C.3      74   A    0.0394
   2351 N1          8.2520    1.3540   10.7770 N.ar     74   A   -0.7615
   2352 C2          7.2770    2.2710   10.8630 C.ar     74   A    0.5875
   2353 N3          6.6840    2.7790   11.9430 N.ar     74   A   -0.6997
   2354 C4          7.2030    2.2390   13.0570 C.ar     74   A    0.3053
   2355 C5          8.2050    1.2880   13.1330 C.ar     74   A    0.0515
   2356 C6          8.7500    0.8310   11.9180 C.ar     74   A    0.7009
   2357 N6          9.7220   -0.0810   11.8280 N.pl3    74   A   -0.9019
   2358 N7          8.4730    0.9740   14.4580 N.ar     74   A   -0.6073
   2359 C8          7.6410    1.7260   15.1390 C.ar     74   A    0.2006
   2360 N9          6.8450    2.5150   14.3520 N.ar     74   A   -0.0251
   2361 OP1         7.3010    0.0320   19.5060 O.co2    74   A   -0.7760
   2362 OP2         5.6450    1.4840   20.8020 O.co2    74   A   -0.7760
   2363 H5'         4.5677    3.1119   19.0080 H        74   A    0.0679
   2364 H5''        6.0826    3.9839   18.6943 H        74   A    0.0679
   2365 H4'         4.2695    4.3662   17.0105 H        74   A    0.1174
   2366 H3'         4.8220    1.4668   16.3405 H        74   A    0.0615
   2367 H2'         4.3539    2.0066   14.0514 H        74   A    0.0972
   2368 H1'         5.8289    4.3424   14.1241 H        74   A    0.2007
   2369 H2          6.9201    2.6539    9.9184 H        74   A    0.0473
   2370 H8          7.5888    1.7231   16.2177 H        74   A    0.1553
   2371 H61        10.0669   -0.3637   10.9218 H        74   A    0.4115
   2372 H62        10.1120   -0.4878   12.6662 H        74   A    0.4115
   2373 HO2'        3.1123    3.7120   13.5665 H        74   A    0.4186
   2374 P           2.1660    0.8260   16.2100 P.3      75   A    1.1662
   2375 C5'         1.0660    1.8550   14.0600 C.3      75   A    0.0558
   2376 O5'         1.9920    0.9410   14.6300 O.3      75   A   -0.4989
   2377 C4'         1.2410    1.9660   12.5650 C.3      75   A    0.1065
   2378 O4'         2.6370    2.2180   12.2520 O.3      75   A   -0.3548
   2379 C3'         0.9010    0.7220   11.7570 C.3      75   A    0.2022
   2380 O3'        -0.4900    0.5850   11.5090 O.3      75   A   -0.5246
   2381 C2'         1.7350    0.9050   10.4960 C.3      75   A    0.0670
   2382 O2'         1.1210    1.8360    9.6180 O.3      75   A   -0.6139
   2383 C1'         2.9970    1.5460   11.0640 C.3      75   A    0.0394
   2384 N1          6.9100   -1.3210    9.2950 N.ar     75   A   -0.7615
   2385 C2          6.0980   -0.4440    8.6970 C.ar     75   A    0.5875
   2386 N3          5.0980    0.2640    9.2170 N.ar     75   A   -0.6997
   2387 C4          4.9550    0.0050   10.5270 C.ar     75   A    0.3053
   2388 C5          5.7140   -0.8710   11.2820 C.ar     75   A    0.0515
   2389 C6          6.7420   -1.5630   10.6130 C.ar     75   A    0.7009
   2390 N6          7.5550   -2.4410   11.2060 N.pl3    75   A   -0.9019
   2391 N7          5.2780   -0.8830   12.6010 N.ar     75   A   -0.6073
   2392 C8          4.2830   -0.0290   12.6120 C.ar     75   A    0.2006
   2393 N9          4.0300    0.5420   11.3900 N.ar     75   A   -0.0251
   2394 OP1         3.0890   -0.2850   16.5390 O.co2    75   A   -0.7760
   2395 OP2         0.8340    0.8680   16.8690 O.co2    75   A   -0.7760
   2396 H5'         0.0538    1.5112   14.2727 H        75   A    0.0679
   2397 H5''        1.2111    2.8371   14.5101 H        75   A    0.0679
   2398 H4'         0.6409    2.7995   12.1999 H        75   A    0.1174
   2399 H3'         1.2552   -0.1584   12.2932 H        75   A    0.0615
   2400 H2'         1.9449   -0.0444   10.0034 H        75   A    0.0972
   2401 H1'         3.3975    2.2621   10.3464 H        75   A    0.2007
   2402 H2          6.2786   -0.2878    7.6437 H        75   A    0.0473
   2403 H8          3.7150    0.2035   13.5007 H        75   A    0.1553
   2404 H61         8.2741   -2.9054   10.6699 H        75   A    0.4115
   2405 H62         7.4508   -2.6406   12.1906 H        75   A    0.4115
   2406 HO2'        0.3229    1.4504    9.2492 H        75   A    0.4186
   2407 P          -1.0760   -0.7970   10.9360 P.3      76   A    1.1662
   2408 C5'        -0.1960   -2.2030    8.9120 C.3      76   A    0.0558
   2409 O5'        -0.3360   -0.9390    9.5360 O.3      76   A   -0.4989
   2410 C4'         0.5580   -2.0900    7.6150 C.3      76   A    0.1065
   2411 O4'         1.9290   -1.7020    7.8770 O.3      76   A   -0.3548
   2412 C3'         0.6790   -3.3690    6.8030 C.3      76   A    0.2022
   2413 O3'        -0.4740   -3.6270    6.0230 O.3      76   A   -0.5246
   2414 C2'         1.9280   -3.1210    5.9720 C.3      76   A    0.0670
   2415 O2'         1.6280   -2.3030    4.8510 O.3      76   A   -0.6139
   2416 C1'         2.7910   -2.3160    6.9470 C.3      76   A    0.0394
   2417 N1          6.7050   -5.6230    6.5700 N.ar     76   A   -0.7615
   2418 C2          5.9880   -4.9540    5.6570 C.ar     76   A    0.5875
   2419 N3          4.9760   -4.1050    5.8230 N.ar     76   A   -0.6997
   2420 C4          4.7090   -3.9580    7.1300 C.ar     76   A    0.3053
   2421 C5          5.3530   -4.5720    8.1900 C.ar     76   A    0.0515
   2422 C6          6.4060   -5.4500    7.8750 C.ar     76   A    0.7009
   2423 N6          7.1200   -6.1130    8.7870 N.pl3    76   A   -0.9019
   2424 N7          4.7990   -4.1740    9.3960 N.ar     76   A   -0.6073
   2425 C8          3.8490   -3.3420    9.0410 C.ar     76   A    0.2006
   2426 N9          3.7390   -3.1700    7.6830 N.ar     76   A   -0.0251
   2427 OP1        -0.6320   -1.8780   11.8520 O.co2    76   A   -0.7760
   2428 OP2        -2.5310   -0.5980   10.7180 O.co2    76   A   -0.7760
   2429 H5'        -1.1863   -2.6124    8.7127 H        76   A    0.0679
   2430 H5''        0.3413   -2.8751    9.5811 H        76   A    0.0679
   2431 H4'         0.0866   -1.3244    6.9987 H        76   A    0.1174
   2432 H3'         0.8544   -4.2083    7.4760 H        76   A    0.0615
   2433 H2'         2.4107   -4.0527    5.6769 H        76   A    0.0972
   2434 H1'         3.3405   -1.5502    6.3996 H        76   A    0.2007
   2435 H2          6.2745   -5.1302    4.6307 H        76   A    0.0473
   2436 H8          3.2113   -2.8380    9.7521 H        76   A    0.1553
   2437 H61         7.8652   -6.7290    8.4948 H        76   A    0.4115
   2438 H62         6.9152   -5.9988    9.7694 H        76   A    0.4115
   2439 HO2'        1.0864   -2.7960    4.2304 H        76   A    0.4186
   2440 P          -1.1130   -5.0990    5.9830 P.3      77   C    1.1662
   2441 C5'         0.1280   -5.3300    3.6900 C.3      77   C    0.0558
   2442 O5'        -0.1550   -5.8700    4.9720 O.3      77   C   -0.4989
   2443 C4'         1.3840   -5.9230    3.0990 C.3      77   C    0.1065
   2444 O4'         2.5390   -5.5190    3.8800 O.3      77   C   -0.3548
   2445 C3'         1.4670   -7.4400    3.0870 C.3      77   C    0.2022
   2446 O3'         0.7400   -8.0270    2.0240 O.3      77   C   -0.5246
   2447 C2'         2.9650   -7.6810    3.0070 C.3      77   C    0.0670
   2448 O2'         3.4380   -7.4450    1.6900 O.3      77   C   -0.6139
   2449 C1'         3.4880   -6.5650    3.9080 C.3      77   C    0.0066
   2450 N1          3.6470   -7.0120    5.3070 N.am     77   C   -0.0484
   2451 C2          4.7500   -7.7900    5.6650 C.2      77   C    0.7538
   2452 O2          5.5790   -8.1010    4.7960 O.2      77   C   -0.6252
   2453 N3          4.8860   -8.1870    6.9510 N.2      77   C   -0.7584
   2454 C4          3.9740   -7.8340    7.8590 C.2      77   C    0.8185
   2455 N4          4.1500   -8.2490    9.1160 N.pl3    77   C   -0.9530
   2456 C5          2.8440   -7.0390    7.5230 C.2      77   C   -0.5215
   2457 C6          2.7250   -6.6540    6.2490 C.2      77   C    0.0053
   2458 OP1        -0.9800   -5.6710    7.3440 O.co2    77   C   -0.7760
   2459 OP2        -2.4670   -4.9670    5.3950 O.co2    77   C   -0.7760
   2460 H5'        -0.7092   -5.5418    3.0250 H        77   C    0.0679
   2461 H5''        0.2501   -4.2503    3.7769 H        77   C    0.0679
   2462 H4'         1.5016   -5.5554    2.0796 H        77   C    0.1174
   2463 H3'         1.0918   -7.8270    4.0344 H        77   C    0.0615
   2464 H2'         3.2428   -8.6694    3.3730 H        77   C    0.0972
   2465 H1'         4.4434   -6.2038    3.5275 H        77   C    0.2029
   2466 H5          2.1126   -6.7581    8.2663 H        77   C    0.1928
   2467 H6          1.8811   -6.0463    5.9577 H        77   C    0.1958
   2468 H41         4.9536   -8.8127    9.3539 H        77   C    0.4234
   2469 H42         3.4795   -7.9991    9.8289 H        77   C    0.4234
   2470 HO2'        3.2351   -6.5423    1.4341 H        77   C    0.4186
   2471 P           0.1400   -9.5060    2.1840 P.3      78   C    1.1662
   2472 C5'         2.2390  -10.3870    0.8960 C.3      78   C    0.0558
   2473 O5'         1.4330  -10.4220    2.0630 O.3      78   C   -0.4989
   2474 C4'         3.3880  -11.3550    0.9950 C.3      78   C    0.1065
   2475 O4'         4.2470  -10.9780    2.0970 O.3      78   C   -0.3548
   2476 C3'         3.0090  -12.7990    1.2810 C.3      78   C    0.2022
   2477 O3'         2.6620  -13.5110    0.1030 O.3      78   C   -0.5246
   2478 C2'         4.2430  -13.3520    1.9850 C.3      78   C    0.0670
   2479 O2'         5.2260  -13.7450    1.0390 O.3      78   C   -0.6139
   2480 C1'         4.7600  -12.1220    2.7330 C.3      78   C    0.0066
   2481 N1          4.3390  -12.0990    4.1510 N.am     78   C   -0.0484
   2482 C2          4.9770  -12.9220    5.0890 C.2      78   C    0.7538
   2483 O2          5.8740  -13.6900    4.7050 O.2      78   C   -0.6252
   2484 N3          4.5950  -12.8700    6.3890 N.2      78   C   -0.7584
   2485 C4          3.6290  -12.0300    6.7720 C.2      78   C    0.8185
   2486 N4          3.2800  -12.0030    8.0610 N.pl3    78   C   -0.9530
   2487 C5          2.9730  -11.1740    5.8370 C.2      78   C   -0.5215
   2488 C6          3.3600  -11.2370    4.5550 C.2      78   C    0.0053
   2489 OP1        -0.4260   -9.6020    3.5520 O.co2    78   C   -0.7760
   2490 OP2        -0.7550   -9.7420    1.0240 O.co2    78   C   -0.7760
   2491 H5'         1.6265  -10.6503    0.0337 H        78   C    0.0679
   2492 H5''        2.6310   -9.3788    0.7620 H        78   C    0.0679
   2493 H4'         3.9629  -11.3171    0.0697 H        78   C    0.1174
   2494 H3'         2.1655  -12.8172    1.9712 H        78   C    0.0615
   2495 H2'         3.9902  -14.1638    2.6670 H        78   C    0.0972
   2496 H1'         5.8486  -12.1027    2.6819 H        78   C    0.2029
   2497 H5          2.1913  -10.4984    6.1517 H        78   C    0.1928
   2498 H6          2.8882  -10.5933    3.8274 H        78   C    0.1958
   2499 H41         3.7439  -12.6090    8.7226 H        78   C    0.4234
   2500 H42         2.5522  -11.3766    8.3741 H        78   C    0.4234
   2501 HO2'        4.9511  -13.4742    0.1600 H        78   C    0.4186
   2502 P           1.4060  -14.5140    0.0930 P.3      79   G    1.1662
   2503 C5'         3.3010  -16.3000    0.2050 C.3      79   G    0.0558
   2504 O5'         2.0340  -15.8560    0.6520 O.3      79   G   -0.4989
   2505 C4'         3.8750  -17.3190    1.1470 C.3      79   G    0.1065
   2506 O4'         4.3690  -16.6610    2.3360 O.3      79   G   -0.3548
   2507 C3'         2.8930  -18.3590    1.6620 C.3      79   G    0.2022
   2508 O3'         2.7340  -19.4290    0.7470 O.3      79   G   -0.5246
   2509 C2'         3.4920  -18.7750    3.0030 C.3      79   G    0.0670
   2510 O2'         4.4820  -19.7760    2.8190 O.3      79   G   -0.6139
   2511 C1'         4.1860  -17.4850    3.4610 C.3      79   G    0.0191
   2512 N1          3.9220  -16.0870    8.3120 N.am     79   G   -0.4787
   2513 C2          4.8450  -16.8770    7.6770 C.2      79   G    0.7657
   2514 N2          5.8430  -17.3630    8.4300 N.pl3    79   G   -0.9672
   2515 N3          4.7960  -17.1700    6.3920 N.2      79   G   -0.6323
   2516 C4          3.7360  -16.6000    5.7880 C.ar     79   G    0.1222
   2517 C5          2.7590  -15.7960    6.3290 C.ar     79   G    0.1744
   2518 C6          2.8200  -15.4910    7.7100 C.2      79   G    0.4770
   2519 O6          2.0490  -14.7970    8.3820 O.2      79   G   -0.5597
   2520 N7          1.8420  -15.4180    5.3590 N.ar     79   G   -0.5709
   2521 C8          2.2710  -15.9890    4.2640 C.ar     79   G    0.1374
   2522 N9          3.4070  -16.7360    4.4630 N.ar     79   G    0.0492
   2523 OP1         0.4060  -13.9830    1.0550 O.co2    79   G   -0.7760
   2524 OP2         1.0070  -14.6970   -1.3250 O.co2    79   G   -0.7760
   2525 H5'         3.1939  -16.7479   -0.7829 H        79   G    0.0679
   2526 H5''        3.9781  -15.4482    0.1415 H        79   G    0.0679
   2527 H4'         4.7035  -17.8283    0.6548 H        79   G    0.1174
   2528 H3'         1.9259  -17.8859    1.8324 H        79   G    0.0615
   2529 H2'         2.7233  -19.0921    3.7077 H        79   G    0.0972
   2530 H1'         5.1601  -17.7348    3.8815 H        79   G    0.2006
   2531 H1          4.0538  -15.9244    9.3001 H        79   G    0.3424
   2532 H8          1.7845  -15.8847    3.3054 H        79   G    0.1640
   2533 H21         5.8867  -17.1418    9.4145 H        79   G    0.4364
   2534 H22         6.5508  -17.9502    8.0125 H        79   G    0.4364
   2535 HO2'        4.0640  -20.5911    2.5319 H        79   G    0.4186
   2536 P           1.6830  -20.6120    1.0230 P.3      80   A    1.1662
   2537 C5'         3.2270  -21.4690   -0.9080 C.3      80   A    0.0558
   2538 O5'         2.2220  -21.7600    0.0550 O.3      80   A   -0.4989
   2539 C4'         3.7210  -22.7110   -1.6090 C.3      80   A    0.1065
   2540 O4'         4.7920  -23.3240   -0.8500 O.3      80   A   -0.3548
   2541 C3'         2.7180  -23.8340   -1.7840 C.3      80   A    0.2022
   2542 O3'         1.8100  -23.6080   -2.8380 O.3      80   A   -0.5246
   2543 C2'         3.6220  -25.0380   -2.0100 C.3      80   A    0.0670
   2544 O2'         4.1140  -25.0520   -3.3410 O.3      80   A   -0.6139
   2545 C1'         4.7820  -24.7230   -1.0660 C.3      80   A    0.0394
   2546 N1          5.2710  -29.1680    1.4310 N.ar     80   A   -0.7615
   2547 C2          5.5160  -28.8090    0.1640 C.ar     80   A    0.5875
   2548 N3          5.3650  -27.6230   -0.4200 N.ar     80   A   -0.6997
   2549 C4          4.8990  -26.7250    0.4630 C.ar     80   A    0.3053
   2550 C5          4.5990  -26.9430    1.7940 C.ar     80   A    0.0515
   2551 C6          4.8000  -28.2410    2.2950 C.ar     80   A    0.7009
   2552 N6          4.5540  -28.5960    3.5590 N.pl3    80   A   -0.9019
   2553 N7          4.1400  -25.7740    2.3860 N.ar     80   A   -0.6073
   2554 C8          4.1710  -24.8910    1.4160 C.ar     80   A    0.2006
   2555 N9          4.6250  -25.4030    0.2290 N.ar     80   A   -0.0251
   2556 OP1         0.3530  -20.1380    0.5600 O.co2    80   A   -0.7760
   2557 OP2         1.8410  -21.0250    2.4430 O.co2    80   A   -0.7760
   2558 H5'         4.0680  -20.9922   -0.4045 H        80   A    0.0679
   2559 H5''        2.8202  -20.7809   -1.6491 H        80   A    0.0679
   2560 H4'         4.1047  -22.4294   -2.5896 H        80   A    0.1174
   2561 H3'         2.1641  -23.9695   -0.8550 H        80   A    0.0615
   2562 H2'         3.1271  -25.9734   -1.7490 H        80   A    0.0972
   2563 H1'         5.7213  -25.0281   -1.5272 H        80   A    0.2007
   2564 H2          5.8898  -29.5951   -0.4754 H        80   A    0.0473
   2565 H8          3.8684  -23.8618    1.5409 H        80   A    0.1553
   2566 HO2'        4.8639  -25.6486   -3.3992 H        80   A    0.4186
   2567 H61         4.7197  -29.5464    3.8580 H        80   A    0.4115
   2568 H62         4.2023  -27.9140    4.2157 H        80   A    0.4115
   2569 P           0.3210  -24.1970   -2.7520 P.3      81   C    1.1662
   2570 C5'         1.0380  -26.4610   -3.8810 C.3      81   C    0.0558
   2571 O5'         0.5590  -25.7760   -2.7290 O.3      81   C   -0.4989
   2572 C4'         1.1770  -27.9470   -3.6380 C.3      81   C    0.1065
   2573 O4'         2.1420  -28.1910   -2.5820 O.3      81   C   -0.3548
   2574 C3'        -0.0700  -28.6770   -3.1640 C.3      81   C    0.2022
   2575 O3'        -0.9780  -28.9680   -4.2120 O.3      81   C   -0.5246
   2576 C2'         0.5110  -29.9180   -2.5020 C.3      81   C    0.0670
   2577 O2'         0.8850  -30.8770   -3.4780 O.3      81   C   -0.6139
   2578 C1'         1.7810  -29.3550   -1.8650 C.3      81   C    0.0066
   2579 N1          1.5740  -28.9970   -0.4470 N.am     81   C   -0.0484
   2580 C2          1.3740  -30.0250    0.4790 C.2      81   C    0.7538
   2581 O2          1.3750  -31.2000    0.0860 O.2      81   C   -0.6252
   2582 N3          1.1800  -29.7180    1.7810 N.2      81   C   -0.7584
   2583 C4          1.1830  -28.4450    2.1700 C.2      81   C    0.8185
   2584 N4          0.9880  -28.1860    3.4630 N.pl3    81   C   -0.9530
   2585 C5          1.3860  -27.3770    1.2490 C.2      81   C   -0.5215
   2586 C6          1.5760  -27.6950   -0.0370 C.2      81   C    0.0053
   2587 OP1        -0.3710  -23.8090   -4.0060 O.co2    81   C   -0.7760
   2588 OP2        -0.2470  -23.7530   -1.4560 O.co2    81   C   -0.7760
   2589 H5'         0.3379  -26.3024   -4.7013 H        81   C    0.0679
   2590 H5''        2.0100  -26.0534   -4.1589 H        81   C    0.0679
   2591 H4'         1.5327  -28.4197   -4.5535 H        81   C    0.1174
   2592 H3'        -0.5745  -28.0721   -2.4106 H        81   C    0.0615
   2593 H2'        -0.1662  -30.3373   -1.7579 H        81   C    0.0972
   2594 H1'         2.5817  -30.0907   -1.9404 H        81   C    0.2029
   2595 H5          1.3865  -26.3480    1.5769 H        81   C    0.1928
   2596 H6          1.7333  -26.9096   -0.7614 H        81   C    0.1958
   2597 H41         0.8441  -28.9448    4.1139 H        81   C    0.4234
   2598 H42         0.9841  -27.2310    3.7918 H        81   C    0.4234
   2599 HO2'        0.0970  -31.2408   -3.8882 H        81   C    0.4186
   2600 P          -2.5530  -29.0890   -3.9080 P.3      82   A    1.1662
   2601 C5'        -2.5280  -31.6580   -3.3550 C.3      82   A    0.0558
   2602 O5'        -2.6320  -30.3180   -2.8890 O.3      82   A   -0.4989
   2603 C4'        -2.8820  -32.6610   -2.2810 C.3      82   A    0.1065
   2604 O4'        -1.9190  -32.5910   -1.1970 O.3      82   A   -0.3548
   2605 C3'        -4.2210  -32.4670   -1.5870 C.3      82   A    0.2022
   2606 O3'        -5.3220  -32.9430   -2.3440 O.3      82   A   -0.5246
   2607 C2'        -4.0200  -33.2090   -0.2730 C.3      82   A    0.0670
   2608 O2'        -4.1340  -34.6100   -0.4650 O.3      82   A   -0.6139
   2609 C1'        -2.5580  -32.8810    0.0310 C.3      82   A    0.0394
   2610 N1         -2.7290  -31.2390    4.8920 N.ar     82   A   -0.7615
   2611 C2         -2.8820  -32.4500    4.3350 C.ar     82   A    0.5875
   2612 N3         -2.8230  -32.8020    3.0530 N.ar     82   A   -0.6997
   2613 C4         -2.5700  -31.7310    2.2850 C.ar     82   A    0.3053
   2614 C5         -2.3900  -30.4260    2.7070 C.ar     82   A    0.0515
   2615 C6         -2.4780  -30.1840    4.0870 C.ar     82   A    0.7009
   2616 N6         -2.3260  -28.9780    4.6350 N.pl3    82   A   -0.9019
   2617 N7         -2.1490  -29.5910    1.6250 N.ar     82   A   -0.6073
   2618 C8         -2.1900  -30.4000    0.5910 C.ar     82   A    0.2006
   2619 N9         -2.4360  -31.7090    0.9210 N.ar     82   A   -0.0251
   2620 OP1        -2.9630  -27.8370   -3.2220 O.co2    82   A   -0.7760
   2621 OP2        -3.2130  -29.4480   -5.1860 O.co2    82   A   -0.7760
   2622 H5'        -3.2065  -31.7909   -4.1976 H        82   A    0.0679
   2623 H5''       -1.5065  -31.8401   -3.6889 H        82   A    0.0679
   2624 H4'        -2.8523  -33.6616   -2.7123 H        82   A    0.1174
   2625 H3'        -4.3638  -31.4066   -1.3789 H        82   A    0.0615
   2626 H2'        -4.6904  -32.8477    0.5068 H        82   A    0.0972
   2627 H1'        -2.0800  -33.7432    0.4960 H        82   A    0.2007
   2628 H2         -3.0818  -33.2550    5.0267 H        82   A    0.0473
   2629 H8         -2.0436  -30.0657   -0.4254 H        82   A    0.1553
   2630 H61        -2.3997  -28.8652    5.6360 H        82   A    0.4115
   2631 H62        -2.1371  -28.1773    4.0491 H        82   A    0.4115
   2632 HO2'       -3.8541  -35.0658    0.3321 H        82   A    0.4186
   2633 P          -6.8010  -32.3750   -2.0590 P.3      83   G    1.1662
   2634 C5'        -7.4710  -34.1920   -0.2890 C.3      83   G    0.0558
   2635 O5'        -7.0860  -32.8540   -0.5670 O.3      83   G   -0.4989
   2636 C4'        -7.8470  -34.3630    1.1600 C.3      83   G    0.1065
   2637 O4'        -6.7460  -33.9400    2.0010 O.3      83   G   -0.3548
   2638 C3'        -9.0280  -33.5340    1.6470 C.3      83   G    0.2022
   2639 O3'       -10.2800  -34.1190    1.3320 O.3      83   G   -0.5246
   2640 C2'        -8.7700  -33.4160    3.1460 C.3      83   G    0.0670
   2641 O2'        -9.2280  -34.5750    3.8270 O.3      83   G   -0.6139
   2642 C1'        -7.2400  -33.3910    3.2040 C.3      83   G    0.0191
   2643 N1         -5.6410  -29.8920    6.4920 N.am     83   G   -0.4787
   2644 C2         -6.1200  -31.1580    6.7180 C.2      83   G    0.7657
   2645 N2         -6.1790  -31.5510    8.0000 N.pl3    83   G   -0.9672
   2646 N3         -6.5100  -31.9820    5.7610 N.2      83   G   -0.6323
   2647 C4         -6.3790  -31.4250    4.5420 C.ar     83   G    0.1222
   2648 C5         -5.9140  -30.1710    4.2050 C.ar     83   G    0.1744
   2649 C6         -5.4990  -29.2970    5.2430 C.2      83   G    0.4770
   2650 O6         -5.0550  -28.1460    5.1580 O.2      83   G   -0.5597
   2651 N7         -5.9440  -29.9950    2.8270 N.ar     83   G   -0.5709
   2652 C8         -6.4170  -31.1220    2.3620 C.ar     83   G    0.1374
   2653 N9         -6.7050  -32.0280    3.3530 N.ar     83   G    0.0492
   2654 OP1        -7.7220  -33.0630   -2.9960 O.co2    83   G   -0.7760
   2655 OP2        -6.7150  -30.8940   -2.1020 O.co2    83   G   -0.7760
   2656 H5'        -8.3276  -34.4515   -0.9111 H        83   G    0.0679
   2657 H5''       -6.6421  -34.8593   -0.5248 H        83   G    0.0679
   2658 H4'        -8.0524  -35.4165    1.3499 H        83   G    0.1174
   2659 H3'        -8.9757  -32.5422    1.1979 H        83   G    0.0615
   2660 H2'        -9.2046  -32.5062    3.5601 H        83   G    0.0972
   2661 H1'        -6.9031  -34.0018    4.0416 H        83   G    0.2006
   2662 H1         -5.3694  -29.3480    7.2985 H        83   G    0.3424
   2663 H8         -6.5653  -31.3192    1.3106 H        83   G    0.1640
   2664 H21        -5.8808  -30.9250    8.7343 H        83   G    0.4364
   2665 H22        -6.5216  -32.4728    8.2304 H        83   G    0.4364
   2666 HO2'      -10.1871  -34.6049    3.7993 H        83   G    0.4186
   2667 P         -11.4480  -33.2310    0.6750 P.3      84   U    1.1662
   2668 C5'       -12.6700  -32.9530    2.9780 C.3      84   U    0.0558
   2669 O5'       -11.9640  -32.3560    1.9030 O.3      84   U   -0.4989
   2670 C4'       -12.5670  -32.1240    4.2320 C.3      84   U    0.1065
   2671 O4'       -11.1790  -31.7920    4.4840 O.3      84   U   -0.3548
   2672 C3'       -13.2720  -30.7760    4.2050 C.3      84   U    0.2022
   2673 O3'       -14.6610  -30.8740    4.4670 O.3      84   U   -0.5246
   2674 C2'       -12.5120  -29.9770    5.2600 C.3      84   U    0.0670
   2675 O2'       -12.9770  -30.2980    6.5630 O.3      84   U   -0.6139
   2676 C1'       -11.0920  -30.5270    5.1040 C.3      84   U    0.0674
   2677 N1        -10.2400  -29.6450    4.2790 N.am     84   U    0.0418
   2678 C2         -9.4680  -28.7360    4.9720 C.2      84   U    0.4687
   2679 O2         -9.4830  -28.6550    6.1870 O.2      84   U   -0.5477
   2680 N3         -8.6830  -27.9260    4.1930 N.am     84   U   -0.3549
   2681 C4         -8.5920  -27.9360    2.8180 C.2      84   U    0.5952
   2682 O4         -7.8360  -27.1410    2.2590 O.2      84   U   -0.5761
   2683 C5         -9.4230  -28.9070    2.1710 C.2      84   U   -0.3635
   2684 C6        -10.2010  -29.7120    2.9050 C.2      84   U   -0.1126
   2685 OP1       -12.5170  -34.1640    0.2380 O.co2    84   U   -0.7760
   2686 OP2       -10.8110  -32.3530   -0.3400 O.co2    84   U   -0.7760
   2687 H5'       -12.2522  -33.9411    3.1711 H        84   U    0.0679
   2688 H5''      -13.7196  -33.0562    2.7029 H        84   U    0.0679
   2689 H4'       -12.9488  -32.7051    5.0714 H        84   U    0.1174
   2690 H3'       -13.1233  -30.3134    3.2293 H        84   U    0.0615
   2691 H2'       -12.5554  -28.9052    5.0664 H        84   U    0.0972
   2692 H1'       -10.6413  -30.6411    6.0899 H        84   U    0.1824
   2693 H3         -8.1105  -27.2501    4.6783 H        84   U    0.3154
   2694 H5         -9.4219  -28.9894    1.0941 H        84   U    0.1811
   2695 H6        -10.8199  -30.4397    2.4011 H        84   U    0.2188
   2696 HO2'      -13.8680  -29.9596    6.6777 H        84   U    0.4186
   2697 P         -15.7300  -30.6800    3.2840 P.3      85   A    1.1662
   2698 C5'       -16.4100  -28.2310    3.9560 C.3      85   A    0.0558
   2699 O5'       -15.7300  -29.1040    3.0570 O.3      85   A   -0.4989
   2700 C4'       -15.7660  -26.8670    3.9860 C.3      85   A    0.1065
   2701 O4'       -16.7030  -25.8920    4.5290 O.3      85   A   -0.3548
   2702 C3'       -14.4940  -26.7600    4.8360 C.3      85   A    0.2022
   2703 O3'       -13.5630  -25.9040    4.1830 O.3      85   A   -0.5246
   2704 C2'       -14.9940  -26.0720    6.1010 C.3      85   A    0.0670
   2705 O2'       -14.0020  -25.3700    6.8140 O.3      85   A   -0.6139
   2706 C1'       -16.0380  -25.1340    5.5170 C.3      85   A    0.0394
   2707 N1        -19.6940  -21.6380    6.3390 N.ar     85   A   -0.7615
   2708 C2        -18.9410  -21.9180    5.2680 C.ar     85   A    0.5875
   2709 N3        -18.0060  -22.8570    5.1320 N.ar     85   A   -0.6997
   2710 C4        -17.8660  -23.5700    6.2680 C.ar     85   A    0.3053
   2711 C5        -18.5700  -23.4010    7.4440 C.ar     85   A    0.0515
   2712 C6        -19.5300  -22.3730    7.4620 C.ar     85   A    0.7009
   2713 N6        -20.2870  -22.0880    8.5220 N.pl3    85   A   -0.9019
   2714 N7        -18.1560  -24.3220    8.3970 N.ar     85   A   -0.6073
   2715 C8        -17.2270  -25.0160    7.7830 C.ar     85   A    0.2006
   2716 N9        -17.0150  -24.6260    6.4850 N.ar     85   A   -0.0251
   2717 OP1       -17.0460  -31.1130    3.8110 O.co2    85   A   -0.7760
   2718 OP2       -15.1810  -31.3620    2.0860 O.co2    85   A   -0.7760
   2719 H5'       -16.3807  -28.6597    4.9577 H        85   A    0.0679
   2720 H5''      -17.4483  -28.1298    3.6401 H        85   A    0.0679
   2721 H4'       -15.5224  -26.5784    2.9635 H        85   A    0.1174
   2722 H3'       -14.0648  -27.7390    5.0491 H        85   A    0.0615
   2723 H2'       -15.4743  -26.8006    6.7541 H        85   A    0.0972
   2724 H1'       -15.5351  -24.2916    5.0421 H        85   A    0.2007
   2725 H2        -19.1147  -21.3007    4.3990 H        85   A    0.0473
   2726 H8        -16.6805  -25.8190    8.2552 H        85   A    0.1553
   2727 H61       -20.9614  -21.3377    8.4739 H        85   A    0.4115
   2728 H62       -20.1860  -22.6224    9.3731 H        85   A    0.4115
   2729 HO2'      -13.5592  -24.7551    6.2245 H        85   A    0.4186
   2730 P         -12.6870  -26.4470    2.9570 P.3      86   G    1.1662
   2731 C5'       -10.9830  -25.1350    1.4520 C.3      86   G    0.0558
   2732 O5'       -12.0900  -25.1070    2.3440 O.3      86   G   -0.4989
   2733 C4'       -10.4710  -23.7470    1.1700 C.3      86   G    0.1065
   2734 O4'       -11.6000  -22.8770    0.8840 O.3      86   G   -0.3548
   2735 C3'        -9.7070  -23.0880    2.3160 C.3      86   G    0.2022
   2736 O3'        -8.6980  -22.2350    1.7790 O.3      86   G   -0.5246
   2737 C2'       -10.7780  -22.2380    2.9940 C.3      86   G    0.0670
   2738 O2'       -10.2730  -21.1350    3.7170 O.3      86   G   -0.6139
   2739 C1'       -11.6200  -21.7930    1.7960 C.3      86   G    0.0191
   2740 N1        -15.2620  -18.2080    2.2030 N.am     86   G   -0.4787
   2741 C2        -13.9400  -18.0660    1.8660 C.2      86   G    0.7657
   2742 N2        -13.5440  -16.8110    1.6010 N.pl3    86   G   -0.9672
   2743 N3        -13.0780  -19.0740    1.7920 N.2      86   G   -0.6323
   2744 C4        -13.6500  -20.2610    2.0930 C.ar     86   G    0.1222
   2745 C5        -14.9650  -20.5050    2.4470 C.ar     86   G    0.1744
   2746 C6        -15.8810  -19.4130    2.5190 C.2      86   G    0.4770
   2747 O6        -17.0860  -19.4170    2.8130 O.2      86   G   -0.5597
   2748 N7        -15.1620  -21.8600    2.6770 N.ar     86   G   -0.5709
   2749 C8        -13.9920  -22.4000    2.4640 C.ar     86   G    0.1374
   2750 N9        -13.0220  -21.4900    2.1160 N.ar     86   G    0.0492
   2751 OP1       -13.6240  -27.0700    1.9920 O.co2    86   G   -0.7760
   2752 OP2       -11.5980  -27.2710    3.5310 O.co2    86   G   -0.7760
   2753 H5'       -11.2944  -25.5955    0.5144 H        86   G    0.0679
   2754 H5''      -10.1826  -25.7287    1.8937 H        86   G    0.0679
   2755 H4'        -9.8250  -23.7830    0.2928 H        86   G    0.1174
   2756 H3'        -9.2879  -23.8274    2.9984 H        86   G    0.0615
   2757 H2'       -11.3799  -22.8638    3.6530 H        86   G    0.0972
   2758 H1'       -11.1579  -20.9214    1.3325 H        86   G    0.2006
   2759 H1        -15.8299  -17.3731    2.2233 H        86   G    0.3424
   2760 H8        -13.8045  -23.4599    2.5527 H        86   G    0.1640
   2761 H21       -14.2056  -16.0500    1.6583 H        86   G    0.4364
   2762 H22       -12.5845  -16.6278    1.3443 H        86   G    0.4364
   2763 HO2'      -10.4840  -21.2382    4.6478 H        86   G    0.4186
   2764 P          -7.1430  -22.5570    2.0350 P.3      87   A    1.1662
   2765 C5'        -6.8210  -21.0740    4.1740 C.3      87   A    0.0558
   2766 O5'        -7.0020  -22.3660    3.6060 O.3      87   A   -0.4989
   2767 C4'        -5.7520  -21.0880    5.2330 C.3      87   A    0.1065
   2768 O4'        -6.1190  -22.0520    6.2530 O.3      87   A   -0.3548
   2769 C3'        -4.3670  -21.4970    4.7450 C.3      87   A    0.2022
   2770 O3'        -3.3740  -20.8140    5.5060 O.3      87   A   -0.5246
   2771 C2'        -4.3250  -22.9890    5.0580 C.3      87   A    0.0670
   2772 O2'        -3.0280  -23.5200    5.2150 O.3      87   A   -0.6139
   2773 C1'        -5.1270  -23.0570    6.3540 C.3      87   A    0.0394
   2774 N1         -6.7820  -26.5450    9.7770 N.ar     87   A   -0.7615
   2775 C2         -6.1320  -25.3870    9.9320 C.ar     87   A    0.5875
   2776 N3         -5.7260  -24.5240    9.0020 N.ar     87   A   -0.6997
   2777 C4         -6.0570  -24.9530    7.7680 C.ar     87   A    0.3053
   2778 C5         -6.7250  -26.1190    7.4550 C.ar     87   A    0.0515
   2779 C6         -7.0990  -26.9450    8.5270 C.ar     87   A    0.7009
   2780 N6         -7.7460  -28.1000    8.3740 N.pl3    87   A   -0.9019
   2781 N7         -6.8930  -26.2380    6.0820 N.ar     87   A   -0.6073
   2782 C8         -6.3340  -25.1560    5.6010 C.ar     87   A    0.2006
   2783 N9         -5.8050  -24.3370    6.5640 N.ar     87   A   -0.0251
   2784 OP1        -6.9240  -23.9770    1.6790 O.co2    87   A   -0.7760
   2785 OP2        -6.3590  -21.5130    1.3260 O.co2    87   A   -0.7760
   2786 H5'        -7.7599  -20.7482    4.6216 H        87   A    0.0679
   2787 H5''       -6.5372  -20.3740    3.3881 H        87   A    0.0679
   2788 H4'        -5.6899  -20.0988    5.6866 H        87   A    0.1174
   2789 H3'        -4.2494  -21.3103    3.6776 H        87   A    0.0615
   2790 H2'        -4.8502  -23.5387    4.2769 H        87   A    0.0972
   2791 H1'        -4.4744  -22.8444    7.2008 H        87   A    0.2007
   2792 H2         -5.9048  -25.1135   10.9518 H        87   A    0.0473
   2793 H8         -6.2937  -24.9304    4.5456 H        87   A    0.1553
   2794 H61        -7.9889  -28.6538    9.1830 H        87   A    0.4115
   2795 H62        -7.9935  -28.4215    7.4491 H        87   A    0.4115
   2796 HO2'       -2.7670  -23.9718    4.4092 H        87   A    0.4186
   2797 P          -2.6690  -19.5000    4.9090 P.3      88   G    1.1662
   2798 C5'        -0.4870  -20.9610    4.9800 C.3      88   G    0.0558
   2799 O5'        -1.1340  -19.7270    5.2660 O.3      88   G   -0.4989
   2800 C4'         0.7710  -21.1190    5.7970 C.3      88   G    0.1065
   2801 O4'         1.4110  -19.8270    5.9420 O.3      88   G   -0.3548
   2802 C3'         0.5770  -21.6260    7.2240 C.3      88   G    0.2022
   2803 O3'         0.5780  -23.0450    7.2990 O.3      88   G   -0.5246
   2804 C2'         1.7290  -20.9860    7.9910 C.3      88   G    0.0670
   2805 O2'         2.9170  -21.7520    7.8390 O.3      88   G   -0.6139
   2806 C1'         1.9130  -19.6660    7.2470 C.3      88   G    0.0191
   2807 N1          0.6870  -17.0380   11.5180 N.am     88   G   -0.4787
   2808 C2          1.4530  -18.1760   11.4130 C.2      88   G    0.7657
   2809 N2          1.9490  -18.6650   12.5610 N.pl3    88   G   -0.9672
   2810 N3          1.7160  -18.7860   10.2640 N.2      88   G   -0.6323
   2811 C4          1.1390  -18.1610    9.2130 C.ar     88   G    0.1222
   2812 C5          0.3550  -17.0220    9.2250 C.ar     88   G    0.1744
   2813 C6          0.0830  -16.3770   10.4540 C.2      88   G    0.4770
   2814 O6         -0.5920  -15.3600   10.6460 O.2      88   G   -0.5597
   2815 N7         -0.0570  -16.6810    7.9470 N.ar     88   G   -0.5709
   2816 C8          0.4690  -17.6020    7.1940 C.ar     88   G    0.1374
   2817 N9          1.1990  -18.5400    7.8870 N.ar     88   G    0.0492
   2818 OP1        -3.1990  -18.3390    5.6650 O.co2    88   G   -0.7760
   2819 OP2        -2.8540  -19.5380    3.4380 O.co2    88   G   -0.7760
   2820 H5'        -1.1668  -21.7809    5.2118 H        88   G    0.0679
   2821 H5''       -0.2328  -20.9951    3.9206 H        88   G    0.0679
   2822 H4'         1.4497  -21.7919    5.2729 H        88   G    0.1174
   2823 H3'        -0.3677  -21.2470    7.6139 H        88   G    0.0615
   2824 H2'         1.4796  -20.8286    9.0403 H        88   G    0.0972
   2825 H1'         2.9761  -19.4310    7.1942 H        88   G    0.2006
   2826 H1          0.5526  -16.6518   12.4415 H        88   G    0.3424
   2827 H8          0.3440  -17.6281    6.1216 H        88   G    0.1640
   2828 H21         1.7505  -18.2002   13.4354 H        88   G    0.4364
   2829 H22         2.5206  -19.4976   12.5501 H        88   G    0.4364
   2830 HO2'        3.0936  -22.2331    8.6508 H        88   G    0.4186
   2831 P          -0.6770  -23.8340    7.9160 P.3      89   U    1.1662
   2832 C5'         0.7840  -24.1120   10.0770 C.3      89   U    0.0558
   2833 O5'        -0.4440  -23.7000    9.4860 O.3      89   U   -0.4989
   2834 C4'         0.8000  -23.8770   11.5690 C.3      89   U    0.1065
   2835 O4'         0.7600  -22.4490   11.8330 O.3      89   U   -0.3548
   2836 C3'        -0.3580  -24.5010   12.3460 C.3      89   U    0.2022
   2837 O3'         0.1200  -25.0340   13.5760 O.3      89   U   -0.5246
   2838 C2'        -1.2780  -23.3160   12.6280 C.3      89   U    0.0670
   2839 O2'        -2.0460  -23.4420   13.8070 O.3      89   U   -0.6139
   2840 C1'        -0.2960  -22.1500   12.7220 C.3      89   U    0.0674
   2841 N1         -0.8840  -20.8540   12.3140 N.am     89   U    0.0418
   2842 C2         -0.9050  -19.7730   13.1800 C.2      89   U    0.4687
   2843 O2         -0.4430  -19.7960   14.3070 O.2      89   U   -0.5477
   2844 N3         -1.4950  -18.6390   12.6760 N.am     89   U   -0.3549
   2845 C4         -2.0570  -18.4720   11.4270 C.2      89   U    0.5952
   2846 O4         -2.5520  -17.3890   11.1070 O.2      89   U   -0.5761
   2847 C5         -1.9990  -19.6340   10.6010 C.2      89   U   -0.3635
   2848 C6         -1.4340  -20.7510   11.0630 C.2      89   U   -0.1126
   2849 OP1        -0.5440  -25.2560    7.5020 O.co2    89   U   -0.7760
   2850 OP2        -1.8970  -23.0890    7.5220 O.co2    89   U   -0.7760
   2851 H5'         0.9267  -25.1757    9.8867 H        89   U    0.0679
   2852 H5''        1.6028  -23.5559    9.6204 H        89   U    0.0679
   2853 H4'         1.7336  -24.2733   11.9683 H        89   U    0.1174
   2854 H3'        -0.8653  -25.2636   11.7551 H        89   U    0.0615
   2855 H2'        -1.9423  -23.1626   11.7775 H        89   U    0.0972
   2856 H1'         0.0895  -22.0750   13.7388 H        89   U    0.1824
   2857 H3         -1.5201  -17.8369   13.2893 H        89   U    0.3154
   2858 H5         -2.4118  -19.6095    9.6033 H        89   U    0.1811
   2859 H6         -1.4089  -21.6174   10.4187 H        89   U    0.2188
   2860 HO2'       -2.9781  -23.3632   13.5914 H        89   U    0.4186
   2861 P           0.2060  -26.6250   13.7840 P.3      90   C    1.1662
   2862 C5'        -2.0680  -27.4820   14.7680 C.3      90   C    0.0558
   2863 O5'        -1.3080  -27.0910   13.6320 O.3      90   C   -0.4989
   2864 C4'        -3.2340  -28.3560   14.3760 C.3      90   C    0.1065
   2865 O4'        -4.0740  -27.6500   13.4310 O.3      90   C   -0.3548
   2866 C3'        -2.8820  -29.6590   13.6710 C.3      90   C    0.2022
   2867 O3'        -2.5460  -30.6950   14.5780 O.3      90   C   -0.5246
   2868 C2'        -4.1300  -29.9530   12.8510 C.3      90   C    0.0670
   2869 O2'        -5.1290  -30.5580   13.6570 O.3      90   C   -0.6139
   2870 C1'        -4.5980  -28.5470   12.4790 C.3      90   C    0.0066
   2871 N1         -4.1280  -28.1340   11.1450 N.am     90   C   -0.0484
   2872 C2         -4.6770  -28.7210   10.0080 C.2      90   C    0.7538
   2873 O2         -5.5410  -29.5970   10.1460 O.2      90   C   -0.6252
   2874 N3         -4.2450  -28.3250    8.7880 N.2      90   C   -0.7584
   2875 C4         -3.3120  -27.3790    8.6820 C.2      90   C    0.8185
   2876 N4         -2.9070  -27.0110    7.4640 N.pl3    90   C   -0.9530
   2877 C5         -2.7460  -26.7590    9.8290 C.2      90   C   -0.5215
   2878 C6         -3.1820  -27.1620   11.0270 C.2      90   C    0.0053
   2879 OP1         0.6680  -26.8530   15.1770 O.co2    90   C   -0.7760
   2880 OP2         1.0180  -27.1690   12.6630 O.co2    90   C   -0.7760
   2881 H5'        -1.4243  -28.0353   15.4518 H        90   C    0.0679
   2882 H5''       -2.4425  -26.5908   15.2716 H        90   C    0.0679
   2883 H4'        -3.8194  -28.5838   15.2668 H        90   C    0.1174
   2884 H3'        -2.0428  -29.4865   12.9971 H        90   C    0.0615
   2885 H2'        -3.9036  -30.5516   11.9686 H        90   C    0.0972
   2886 H1'        -5.6870  -28.5089   12.5068 H        90   C    0.2029
   2887 H5         -1.9921  -25.9912    9.7363 H        90   C    0.1928
   2888 H6         -2.7758  -26.7076   11.9186 H        90   C    0.1958
   2889 H41        -3.3062  -27.4480    6.6456 H        90   C    0.4234
   2890 H42        -2.2014  -26.2957    7.3611 H        90   C    0.4234
   2891 HO2'       -4.8511  -31.4440   13.9006 H        90   C    0.4186
   2892 P          -1.2750  -31.6400   14.3020 P.3      91   U    1.1662
   2893 C5'        -2.8990  -33.4710   13.3740 C.3      91   U    0.0558
   2894 O5'        -1.7960  -32.6060   13.1530 O.3      91   U   -0.4989
   2895 C4'        -3.3540  -34.1110   12.0910 C.3      91   U    0.1065
   2896 O4'        -3.9860  -33.1150   11.2430 O.3      91   U   -0.3548
   2897 C3'        -2.2540  -34.6930   11.2160 C.3      91   U    0.2022
   2898 O3'        -1.8240  -35.9770   11.6350 O.3      91   U   -0.5246
   2899 C2'        -2.8880  -34.6790    9.8340 C.3      91   U    0.0670
   2900 O2'        -3.8120  -35.7500    9.6970 O.3      91   U   -0.6139
   2901 C1'        -3.6730  -33.3670    9.8870 C.3      91   U    0.0674
   2902 N1         -2.8760  -32.2260    9.3670 N.am     91   U    0.0418
   2903 C2         -2.9790  -31.9070    8.0240 C.2      91   U    0.4687
   2904 O2         -3.6930  -32.5200    7.2520 O.2      91   U   -0.5477
   2905 N3         -2.2090  -30.8450    7.6150 N.am     91   U   -0.3549
   2906 C4         -1.3640  -30.0850    8.3970 C.2      91   U    0.5952
   2907 O4         -0.7340  -29.1600    7.8840 O.2      91   U   -0.5761
   2908 C5         -1.3110  -30.4720    9.7740 C.2      91   U   -0.3635
   2909 C6         -2.0500  -31.5030   10.1990 C.2      91   U   -0.1126
   2910 OP1        -1.0350  -32.4150   15.5400 O.co2    91   U   -0.7760
   2911 OP2        -0.1880  -30.7740   13.7790 O.co2    91   U   -0.7760
   2912 H5'        -2.6037  -34.2514   14.0753 H        91   U    0.0679
   2913 H5''       -3.7229  -32.8990   13.8008 H        91   U    0.0679
   2914 H4'        -4.0773  -34.8934   12.3207 H        91   U    0.1174
   2915 H3'        -1.4009  -34.0145   11.2213 H        91   U    0.0615
   2916 H2'        -2.1410  -34.6780    9.0402 H        91   U    0.0972
   2917 H1'        -4.5925  -33.4657    9.3101 H        91   U    0.1824
   2918 H3         -2.2679  -30.5942    6.6384 H        91   U    0.3154
   2919 H5         -0.6785  -29.9351   10.4655 H        91   U    0.1811
   2920 H6         -1.9965  -31.7809   11.2413 H        91   U    0.2188
   2921 HO2'       -3.3349  -36.5823    9.6621 H        91   U    0.4186
   2922 P          -0.2680  -36.3720   11.5560 P.3      92   G    1.1662
   2923 C5'        -0.8670  -37.6610    9.3550 C.3      92   G    0.0558
   2924 O5'        -0.0630  -36.6920   10.0100 O.3      92   G   -0.4989
   2925 C4'        -0.7040  -37.5880    7.8580 C.3      92   G    0.1065
   2926 O4'        -1.2800  -36.3540    7.3610 O.3      92   G   -0.3548
   2927 C3'         0.7270  -37.5600    7.3490 C.3      92   G    0.2022
   2928 O3'         1.3130  -38.8460    7.2920 O.3      92   G   -0.5246
   2929 C2'         0.5870  -36.8930    5.9880 C.3      92   G    0.0670
   2930 O2'         0.1420  -37.8260    5.0150 O.3      92   G   -0.6139
   2931 C1'        -0.5410  -35.8910    6.2520 C.3      92   G    0.0191
   2932 N1          1.0310  -31.4730    4.3220 N.am     92   G   -0.4787
   2933 C2          0.5880  -32.6040    3.6790 C.2      92   G    0.7657
   2934 N2          0.5590  -32.5540    2.3410 N.pl3    92   G   -0.9672
   2935 N3          0.2020  -33.7030    4.3010 N.2      92   G   -0.6323
   2936 C4          0.2940  -33.5770    5.6400 C.ar     92   G    0.1222
   2937 C5          0.7230  -32.4970    6.3820 C.ar     92   G    0.1744
   2938 C6          1.1360  -31.3230    5.7010 C.2      92   G    0.4770
   2939 O6          1.5480  -30.2600    6.1780 O.2      92   G   -0.5597
   2940 N7          0.6680  -32.7800    7.7400 N.ar     92   G   -0.5709
   2941 C8          0.2160  -34.0040    7.7970 C.ar     92   G    0.1374
   2942 N9         -0.0260  -34.5440    6.5580 N.ar     92   G    0.0492
   2943 OP1         0.5120  -35.1630   11.9290 O.co2    92   G   -0.7760
   2944 OP2        -0.0900  -37.6100   12.3560 O.co2    92   G   -0.7760
   2945 H5'        -1.9125  -37.4836    9.6071 H        92   G    0.0679
   2946 H5''       -0.5800  -38.6550    9.6981 H        92   G    0.0679
   2947 H4'        -1.2252  -38.4305    7.4034 H        92   G    0.1174
   2948 H3'         1.3257  -36.9227    7.9998 H        92   G    0.0615
   2949 H2'         1.5080  -36.3963    5.6827 H        92   G    0.0972
   2950 H1'        -1.1917  -35.8401    5.3790 H        92   G    0.2006
   2951 H1          1.3020  -30.6879    3.7473 H        92   G    0.3424
   2952 H8          0.0499  -34.5359    8.7221 H        92   G    0.1640
   2953 H21         0.8532  -31.7158    1.8605 H        92   G    0.4364
   2954 H22         0.2429  -33.3545    1.8125 H        92   G    0.4364
   2955 HO2'        0.8392  -38.4619    4.8384 H        92   G    0.4186
   2956 P           2.8810  -39.0270    7.5790 P.3      93   G    1.1662
   2957 C5'         3.2600  -39.4010    5.0130 C.3      93   G    0.0558
   2958 O5'         3.5410  -38.6430    6.1810 O.3      93   G   -0.4989
   2959 C4'         3.5720  -38.6260    3.7560 C.3      93   G    0.1065
   2960 O4'         2.8380  -37.3770    3.7490 O.3      93   G   -0.3548
   2961 C3'         5.0200  -38.2050    3.5660 C.3      93   G    0.2022
   2962 O3'         5.8340  -39.2520    3.0650 O.3      93   G   -0.5246
   2963 C2'         4.9040  -37.0160    2.6170 C.3      93   G    0.0670
   2964 O2'         4.7850  -37.4560    1.2720 O.3      93   G   -0.6139
   2965 C1'         3.5700  -36.3970    3.0430 C.3      93   G    0.0191
   2966 N1          4.1530  -31.3690    3.1130 N.am     93   G   -0.4787
   2967 C2          4.0130  -32.2280    2.0510 C.2      93   G    0.7657
   2968 N2          4.0280  -31.6770    0.8280 N.pl3    93   G   -0.9672
   2969 N3          3.8680  -33.5360    2.1740 N.2      93   G   -0.6323
   2970 C4          3.8740  -33.9220    3.4660 C.ar     93   G    0.1222
   2971 C5          4.0080  -33.1490    4.5990 C.ar     93   G    0.1744
   2972 C6          4.1640  -31.7440    4.4540 C.2      93   G    0.4770
   2973 O6          4.2980  -30.8800    5.3320 O.2      93   G   -0.5597
   2974 N7          3.9640  -33.9440    5.7380 N.ar     93   G   -0.5709
   2975 C8          3.8050  -35.1580    5.2810 C.ar     93   G    0.1374
   2976 N9          3.7480  -35.2150    3.9090 N.ar     93   G    0.0492
   2977 OP1         3.1100  -40.4640    7.8670 O.co2    93   G   -0.7760
   2978 OP2         3.2540  -38.0260    8.6080 O.co2    93   G   -0.7760
   2979 H5'         2.2030  -39.6671    5.0106 H        93   G    0.0679
   2980 H5''        3.8572  -40.3127    5.0273 H        93   G    0.0679
   2981 H4'         3.2637  -39.2180    2.8943 H        93   G    0.1174
   2982 H3'         5.4220  -37.8640    4.5200 H        93   G    0.0615
   2983 H2'         5.7314  -36.3175    2.7417 H        93   G    0.0972
   2984 H1'         3.0113  -36.1065    2.1533 H        93   G    0.2006
   2985 H1          4.2563  -30.3861    2.9048 H        93   G    0.3424
   2986 H8          3.7264  -36.0276    5.9166 H        93   G    0.1640
   2987 H21         4.1383  -30.6783    0.7254 H        93   G    0.4364
   2988 H22         3.9290  -32.2609    0.0098 H        93   G    0.4364
   2989 HO2'        5.6144  -37.8476    0.9884 H        93   G    0.4186
   2990 P           7.2550  -39.5710    3.7450 P.3      94   A    1.1662
   2991 C5'         7.9040  -39.8620    6.2670 C.3      94   A    0.0558
   2992 O5'         6.9050  -39.5760    5.2960 O.3      94   A   -0.4989
   2993 C4'         7.8550  -38.8860    7.4140 C.3      94   A    0.1065
   2994 O4'         8.4230  -37.6180    6.9870 O.3      94   A   -0.3548
   2995 C3'         6.4560  -38.5770    7.9470 C.3      94   A    0.2022
   2996 O3'         6.4940  -38.4180    9.3700 O.3      94   A   -0.5246
   2997 C2'         6.1220  -37.2430    7.2860 C.3      94   A    0.0670
   2998 O2'         5.1990  -36.4480    8.0010 O.3      94   A   -0.6139
   2999 C1'         7.4930  -36.5770    7.2040 C.3      94   A    0.0394
   3000 N1          7.5290  -31.6080    5.8870 N.ar     94   A   -0.7615
   3001 C2          7.3900  -32.2260    7.0670 C.ar     94   A    0.5875
   3002 N3          7.3920  -33.5280    7.3400 N.ar     94   A   -0.6997
   3003 C4          7.5630  -34.2500    6.2170 C.ar     94   A    0.3053
   3004 C5          7.7170  -33.7620    4.9320 C.ar     94   A    0.0515
   3005 C6          7.6980  -32.3640    4.7770 C.ar     94   A    0.7009
   3006 N6          7.8370  -31.7470    3.6020 N.pl3    94   A   -0.9019
   3007 N7          7.8680  -34.8030    4.0250 N.ar     94   A   -0.6073
   3008 C8          7.8000  -35.8780    4.7700 C.ar     94   A    0.2006
   3009 N9          7.6180  -35.6160    6.1060 N.ar     94   A   -0.0251
   3010 OP1         8.1530  -38.4340    3.4330 O.co2    94   A   -0.7760
   3011 OP2         7.6530  -40.9320    3.3140 O.co2    94   A   -0.7760
   3012 H5'         7.7452  -40.8692    6.6522 H        94   A    0.0679
   3013 H5''        8.8855  -39.8104    5.7957 H        94   A    0.0679
   3014 H4'         8.4591  -39.2797    8.2314 H        94   A    0.1174
   3015 H3'         5.7443  -39.3496    7.6561 H        94   A    0.0615
   3016 H2'         5.7442  -37.4212    6.2792 H        94   A    0.0972
   3017 H1'         7.7146  -36.0814    8.1492 H        94   A    0.2007
   3018 H2          7.2574  -31.5746    7.9182 H        94   A    0.0473
   3019 H8          7.8797  -36.8783    4.3707 H        94   A    0.1553
   3020 H61         7.8147  -30.7383    3.5555 H        94   A    0.4115
   3021 H62         7.9645  -32.2887    2.7591 H        94   A    0.4115
   3022 HO2'        4.3577  -36.4407    7.5386 H        94   A    0.4186
   3023 P           7.8920  -38.4160   10.1670 P.3      95   U    1.1662
   3024 C5'        10.0080  -39.8670    9.6690 C.3      95   U    0.0558
   3025 O5'         8.5950  -39.7540    9.6710 O.3      95   U   -0.4989
   3026 C4'        10.5540  -39.8580   11.0700 C.3      95   U    0.1065
   3027 O4'         9.8090  -40.8010   11.8820 O.3      95   U   -0.3548
   3028 C3'        12.0080  -40.2830   11.2220 C.3      95   U    0.2022
   3029 O3'        12.9190  -39.2180   10.9900 O.3      95   U   -0.5246
   3030 C2'        12.0560  -40.8240   12.6460 C.3      95   U    0.0670
   3031 O2'        12.1660  -39.7610   13.5820 O.3      95   U   -0.6139
   3032 C1'        10.6670  -41.4510   12.7880 C.3      95   U    0.0674
   3033 N1         10.6660  -42.8960   12.4730 N.am     95   U    0.0418
   3034 C2         10.0350  -43.7430   13.3670 C.2      95   U    0.4687
   3035 O2          9.5010  -43.3470   14.3910 O.2      95   U   -0.5477
   3036 N3         10.0590  -45.0730   13.0210 N.am     95   U   -0.3549
   3037 C4         10.6320  -45.6300   11.8950 C.2      95   U    0.5952
   3038 O4         10.5730  -46.8490   11.7190 O.2      95   U   -0.5761
   3039 C5         11.2580  -44.6880   11.0170 C.2      95   U   -0.3635
   3040 C6         11.2500  -43.3870   11.3270 C.2      95   U   -0.1126
   3041 OP1         7.5680  -38.5250   11.6100 O.co2    95   U   -0.7760
   3042 OP2         8.6630  -37.2390    9.7010 O.co2    95   U   -0.7760
   3043 H5'        10.2895  -40.8013    9.1834 H        95   U    0.0679
   3044 H5''       10.4336  -39.0316    9.1130 H        95   U    0.0679
   3045 H4'        10.4330  -38.8591   11.4892 H        95   U    0.1174
   3046 H3'        12.2190  -41.0931   10.5239 H        95   U    0.0615
   3047 H2'        12.8489  -41.5609   12.7737 H        95   U    0.0972
   3048 H1'        10.3030  -41.3007   13.8044 H        95   U    0.1824
   3049 H3          9.6085  -45.7125   13.6599 H        95   U    0.3154
   3050 H5         11.7344  -45.0264   10.1087 H        95   U    0.1811
   3051 H6         11.7221  -42.6915   10.6490 H        95   U    0.2188
   3052 HO2'       13.0330  -39.3558   13.5063 H        95   U    0.4186
   3053 P          13.8630  -39.2210    9.6880 P.3      96   G    1.1662
   3054 C5'        12.7960  -40.1430    7.4780 C.3      96   G    0.0558
   3055 O5'        12.8160  -39.1490    8.4910 O.3      96   G   -0.4989
   3056 C4'        12.5440  -39.5410    6.1190 C.3      96   G    0.1065
   3057 O4'        11.2760  -38.8330    6.1240 O.3      96   G   -0.3548
   3058 C3'        13.5480  -38.4950    5.6600 C.3      96   G    0.2022
   3059 O3'        14.7300  -39.0590    5.1190 O.3      96   G   -0.5246
   3060 C2'        12.7420  -37.6780    4.6600 C.3      96   G    0.0670
   3061 O2'        12.6340  -38.3640    3.4220 O.3      96   G   -0.6139
   3062 C1'        11.3690  -37.6710    5.3260 C.3      96   G    0.0191
   3063 N1         10.6310  -32.6420    5.5260 N.am     96   G   -0.4787
   3064 C2         10.7630  -33.4600    4.4300 C.2      96   G    0.7657
   3065 N2         10.6890  -32.8640    3.2300 N.pl3    96   G   -0.9672
   3066 N3         10.9530  -34.7670    4.5060 N.2      96   G   -0.6323
   3067 C4         11.0000  -35.1950    5.7860 C.ar     96   G    0.1222
   3068 C5         10.8810  -34.4610    6.9480 C.ar     96   G    0.1744
   3069 C6         10.6780  -33.0600    6.8520 C.2      96   G    0.4770
   3070 O6         10.5480  -32.2360    7.7660 O.2      96   G   -0.5597
   3071 N7         10.9890  -35.2800    8.0620 N.ar     96   G   -0.5709
   3072 C8         11.1690  -36.4740    7.5690 C.ar     96   G    0.1374
   3073 N9         11.1870  -36.4930    6.1960 N.ar     96   G    0.0492
   3074 OP1        14.5690  -40.5260    9.6620 O.co2    96   G   -0.7760
   3075 OP2        14.6700  -37.9740    9.7290 O.co2    96   G   -0.7760
   3076 H5'        13.7580  -40.6554    7.4655 H        96   G    0.0679
   3077 H5''       12.0098  -40.8644    7.7007 H        96   G    0.0679
   3078 H4'        12.5011  -40.3404    5.3792 H        96   G    0.1174
   3079 H3'        13.8121  -37.8607    6.5062 H        96   G    0.0615
   3080 H2'        13.1422  -36.6716    4.5367 H        96   G    0.0972
   3081 H1'        10.5910  -37.6870    4.5627 H        96   G    0.2006
   3082 H1         10.4882  -31.6569    5.3550 H        96   G    0.3424
   3083 H8         11.2914  -37.3573    8.1782 H        96   G    0.1640
   3084 H21        10.5437  -31.8663    3.1698 H        96   G    0.4364
   3085 H22        10.7786  -33.4131    2.3870 H        96   G    0.4364
   3086 HO2'       13.4901  -38.3784    2.9879 H        96   G    0.4186
   3087 P          16.1660  -38.4450    5.4980 P.3      97   A    1.1662
   3088 C5'        16.0270  -37.1690    3.2100 C.3      97   A    0.0558
   3089 O5'        16.2280  -37.1210    4.6160 O.3      97   A   -0.4989
   3090 C4'        15.8090  -35.7910    2.6330 C.3      97   A    0.1065
   3091 O4'        14.5930  -35.2160    3.1760 O.3      97   A   -0.3548
   3092 C3'        16.8850  -34.7620    2.9470 C.3      97   A    0.2022
   3093 O3'        18.0010  -34.8570    2.0770 O.3      97   A   -0.5246
   3094 C2'        16.1370  -33.4360    2.8400 C.3      97   A    0.0670
   3095 O2'        16.0390  -33.0210    1.4860 O.3      97   A   -0.6139
   3096 C1'        14.7390  -33.8210    3.3290 C.3      97   A    0.0394
   3097 N1         13.2020  -30.2130    6.6560 N.ar     97   A   -0.7615
   3098 C2         13.3030  -30.2220    5.3200 C.ar     97   A    0.5875
   3099 N3         13.7160  -31.1970    4.5140 N.ar     97   A   -0.6997
   3100 C4         14.0520  -32.2860    5.2260 C.ar     97   A    0.3053
   3101 C5         14.0040  -32.4290    6.6020 C.ar     97   A    0.0515
   3102 C6         13.5500  -31.3250    7.3410 C.ar     97   A    0.7009
   3103 N6         13.4510  -31.3220    8.6720 N.pl3    97   A   -0.9019
   3104 N7         14.4300  -33.6940    6.9820 N.ar     97   A   -0.6073
   3105 C8         14.7240  -34.2790    5.8470 C.ar     97   A    0.2006
   3106 N9         14.5270  -33.4810    4.7470 N.ar     97   A   -0.0251
   3107 OP1        16.1250  -38.0890    6.9390 O.co2    97   A   -0.7760
   3108 OP2        17.1910  -39.4090    5.0320 O.co2    97   A   -0.7760
   3109 H5'        15.1519  -37.7835    2.9986 H        97   A    0.0679
   3110 H5''       16.9013  -37.6189    2.7395 H        97   A    0.0679
   3111 H4'        15.7065  -35.8744    1.5510 H        97   A    0.1174
   3112 H3'        17.2212  -34.8999    3.9746 H        97   A    0.0615
   3113 H2'        16.5869  -32.6663    3.4671 H        97   A    0.0972
   3114 H1'        13.9916  -33.3116    2.7207 H        97   A    0.2007
   3115 H2         13.0071  -29.3078    4.8270 H        97   A    0.0473
   3116 H8         15.0873  -35.2940    5.7826 H        97   A    0.1553
   3117 H61        13.1188  -30.4977    9.1518 H        97   A    0.4115
   3118 H62        13.7083  -32.1441    9.1994 H        97   A    0.4115
   3119 HO2'       16.2088  -32.0780    1.4275 H        97   A    0.4186
   3120 P          19.4830  -34.5580    2.6200 P.3      98   G    1.1662
   3121 C5'        19.1320  -32.0650    1.9050 C.3      98   G    0.0558
   3122 O5'        19.4370  -33.0010    2.9270 O.3      98   G   -0.4989
   3123 C4'        19.0950  -30.6660    2.4520 C.3      98   G    0.1065
   3124 O4'        17.9350  -30.5120    3.3060 O.3      98   G   -0.3548
   3125 C3'        20.2730  -30.2760    3.3310 C.3      98   G    0.2022
   3126 O3'        21.3900  -29.8320    2.5750 O.3      98   G   -0.5246
   3127 C2'        19.6900  -29.2040    4.2430 C.3      98   G    0.0670
   3128 O2'        19.6950  -27.9410    3.5960 O.3      98   G   -0.6139
   3129 C1'        18.2370  -29.6680    4.3910 C.3      98   G    0.0191
   3130 N1         16.0900  -29.6170    9.0230 N.am     98   G   -0.4787
   3131 C2         16.1030  -28.6420    8.0590 C.2      98   G    0.7657
   3132 N2         15.4610  -27.5050    8.3640 N.pl3    98   G   -0.9672
   3133 N3         16.6990  -28.7700    6.8830 N.2      98   G   -0.6323
   3134 C4         17.2940  -29.9760    6.7430 C.ar     98   G    0.1222
   3135 C5         17.3380  -31.0180    7.6470 C.ar     98   G    0.1744
   3136 C6         16.6920  -30.8650    8.9040 C.2      98   G    0.4770
   3137 O6         16.6180  -31.6750    9.8380 O.2      98   G   -0.5597
   3138 N7         18.0490  -32.0910    7.1260 N.ar     98   G   -0.5709
   3139 C8         18.4190  -31.6900    5.9400 C.ar     98   G    0.1374
   3140 N9         18.0050  -30.4140    5.6450 N.ar     98   G    0.0492
   3141 OP1        20.4220  -34.8240    1.5000 O.co2    98   G   -0.7760
   3142 OP2        19.6480  -35.3180    3.8850 O.co2    98   G   -0.7760
   3143 H5'        18.1585  -32.3071    1.4786 H        98   G    0.0679
   3144 H5''       19.8907  -32.1254    1.1247 H        98   G    0.0679
   3145 H4'        19.0219  -29.9621    1.6230 H        98   G    0.1174
   3146 H3'        20.5685  -31.1350    3.9335 H        98   G    0.0615
   3147 H2'        20.2029  -29.1680    5.2041 H        98   G    0.0972
   3148 H1'        17.5789  -28.7996    4.3636 H        98   G    0.2006
   3149 H1         15.6061  -29.4132    9.8858 H        98   G    0.3424
   3150 H8         18.9932  -32.3005    5.2589 H        98   G    0.1640
   3151 H21        15.0060  -27.4068    9.2603 H        98   G    0.4364
   3152 H22        15.4324  -26.7468    7.6974 H        98   G    0.4364
   3153 HO2'       18.9284  -27.8718    3.0223 H        98   G    0.4186
   3154 P          22.8860  -30.0330    3.1280 P.3      99   A    1.1662
   3155 C5'        23.3850  -27.8940    1.6940 C.3      99   A    0.0558
   3156 O5'        23.5300  -28.5910    2.9240 O.3      99   A   -0.4989
   3157 C4'        23.0170  -26.4470    1.9180 C.3      99   A    0.1065
   3158 O4'        21.7310  -26.3680    2.5820 O.3      99   A   -0.3548
   3159 C3'        23.9510  -25.6550    2.8190 C.3      99   A    0.2022
   3160 O3'        25.0970  -25.1770    2.1410 O.3      99   A   -0.5246
   3161 C2'        23.0530  -24.5440    3.3520 C.3      99   A    0.0670
   3162 O2'        22.9390  -23.4900    2.4070 O.3      99   A   -0.6139
   3163 C1'        21.7050  -25.2570    3.4540 C.3      99   A    0.0394
   3164 N1         18.4760  -25.0730    7.4540 N.ar     99   A   -0.7615
   3165 C2         18.4560  -24.4880    6.2510 C.ar     99   A    0.5875
   3166 N3         19.3320  -24.5820    5.2560 N.ar     99   A   -0.6997
   3167 C4         20.3450  -25.3970    5.5950 C.ar     99   A    0.3053
   3168 C5         20.5050  -26.0710    6.7900 C.ar     99   A    0.0515
   3169 C6         19.5070  -25.8890    7.7600 C.ar     99   A    0.7009
   3170 N6         19.5240  -26.4730    8.9590 N.pl3    99   A   -0.9019
   3171 N7         21.6730  -26.8230    6.7780 N.ar     99   A   -0.6073
   3172 C8         22.1860  -26.5900    5.5920 C.ar     99   A    0.2006
   3173 N9         21.4330  -25.7370    4.8230 N.ar     99   A   -0.0251
   3174 OP1        22.7800  -30.3370    4.5770 O.co2    99   A   -0.7760
   3175 OP2        23.5530  -31.0160    2.2400 O.co2    99   A   -0.7760
   3176 H5'        24.3274  -27.9392    1.1482 H        99   A    0.0679
   3177 H5''       22.6056  -28.3732    1.1015 H        99   A    0.0679
   3178 H4'        22.9479  -25.9460    0.9524 H        99   A    0.1174
   3179 H3'        24.2661  -26.2873    3.6491 H        99   A    0.0615
   3180 H2'        23.3922  -24.1813    4.3223 H        99   A    0.0972
   3181 H1'        20.9120  -24.5753    3.1464 H        99   A    0.2007
   3182 H2         17.6069  -23.8481    6.0614 H        99   A    0.0473
   3183 H8         23.1131  -27.0281    5.2530 H        99   A    0.1553
   3184 HO2'       22.2455  -23.6983    1.7767 H        99   A    0.4186
   3185 H61        18.7755  -26.3013    9.6150 H        99   A    0.4115
   3186 H62        20.2854  -27.0870    9.2109 H        99   A    0.4115
   3187 P          26.5270  -25.1650    2.8740 P.3     100   G    1.1662
   3188 C5'        26.1940  -23.6790    5.0100 C.3     100   G    0.0558
   3189 O5'        26.1420  -24.9640    4.4070 O.3     100   G   -0.4989
   3190 C4'        25.4960  -23.6660    6.3460 C.3     100   G    0.1065
   3191 O4'        24.5050  -24.7220    6.3940 O.3     100   G   -0.3548
   3192 C3'        26.3680  -23.9260    7.5610 C.3     100   G    0.2022
   3193 O3'        27.0840  -22.7780    7.9770 O.3     100   G   -0.5246
   3194 C2'        25.3600  -24.4200    8.5930 C.3     100   G    0.0670
   3195 O2'        24.6680  -23.3270    9.1810 O.3     100   G   -0.6139
   3196 C1'        24.3750  -25.1970    7.7170 C.3     100   G    0.0191
   3197 N1         23.8090  -29.5790   10.2550 N.am    100   G   -0.4787
   3198 C2         23.4150  -28.3130   10.6040 C.2     100   G    0.7657
   3199 N2         22.7870  -28.1960   11.7840 N.pl3   100   G   -0.9672
   3200 N3         23.6210  -27.2410    9.8570 N.2     100   G   -0.6323
   3201 C4         24.2640  -27.5410    8.7080 C.ar    100   G    0.1222
   3202 C5         24.7010  -28.7730    8.2660 C.ar    100   G    0.1744
   3203 C6         24.4750  -29.9130    9.0800 C.2     100   G    0.4770
   3204 O6         24.7860  -31.0900    8.8620 O.2     100   G   -0.5597
   3205 N7         25.3200  -28.6600    7.0280 N.ar    100   G   -0.5709
   3206 C8         25.2530  -27.3860    6.7470 C.ar    100   G    0.1374
   3207 N9         24.6340  -26.6500    7.7270 N.ar    100   G    0.0492
   3208 OP1        27.1330  -26.5060    2.6760 O.co2   100   G   -0.7760
   3209 OP2        27.2570  -23.9730    2.3800 O.co2   100   G   -0.7760
   3210 H5'        27.2372  -23.3971    5.1530 H       100   G    0.0679
   3211 H5''       25.7157  -22.9552    4.3501 H       100   G    0.0679
   3212 H4'        24.9943  -22.7065    6.4717 H       100   G    0.1174
   3213 H3'        27.0721  -24.7265    7.3339 H       100   G    0.0615
   3214 H2'        25.8264  -25.0574    9.3442 H       100   G    0.0972
   3215 H1'        23.3596  -25.0110    8.0669 H       100   G    0.2006
   3216 H1         23.5996  -30.3269   10.9007 H       100   G    0.3424
   3217 H8         25.6444  -26.9557    5.8370 H       100   G    0.1640
   3218 H21        22.6298  -29.0137   12.3557 H       100   G    0.4364
   3219 H22        22.4715  -27.2903   12.1005 H       100   G    0.4364
   3220 HO2'       24.2345  -22.8153    8.4941 H       100   G    0.4186
   3221 P          28.4710  -22.9330    8.7700 P.3     101   A    1.1662
   3222 C5'        27.2770  -22.6470   11.0840 C.3     101   A    0.0558
   3223 O5'        28.0080  -23.4750   10.1930 O.3     101   A   -0.4989
   3224 C4'        27.1660  -23.2780   12.4470 C.3     101   A    0.1065
   3225 O4'        26.1730  -24.3350   12.4180 O.3     101   A   -0.3548
   3226 C3'        28.4250  -23.9560   12.9620 C.3     101   A    0.2022
   3227 O3'        29.3330  -23.0450   13.5540 O.3     101   A   -0.5246
   3228 C2'        27.8820  -25.0000   13.9300 C.3     101   A    0.0670
   3229 O2'        27.5590  -24.4090   15.1810 O.3     101   A   -0.6139
   3230 C1'        26.5810  -25.4090   13.2370 C.3     101   A    0.0394
   3231 N1         26.4990  -30.5640   12.9540 N.ar    101   A   -0.7615
   3232 C2         26.2910  -29.7180   13.9730 C.ar    101   A    0.5875
   3233 N3         26.3250  -28.3870   13.9870 N.ar    101   A   -0.6997
   3234 C4         26.6210  -27.9100   12.7640 C.ar    101   A    0.3053
   3235 C5         26.8640  -28.6530   11.6210 C.ar    101   A    0.0515
   3236 C6         26.7960  -30.0520   11.7390 C.ar    101   A    0.7009
   3237 N6         27.0080  -30.8870   10.7190 N.pl3   101   A   -0.9019
   3238 N7         27.1390  -27.8270   10.5400 N.ar    101   A   -0.6073
   3239 C8         27.0580  -26.6220   11.0460 C.ar    101   A    0.2006
   3240 N9         26.7560  -26.5980   12.3850 N.ar    101   A   -0.0251
   3241 OP1        29.0480  -21.5730    8.9100 O.co2   101   A   -0.7760
   3242 OP2        29.2620  -23.9740    8.0680 O.co2   101   A   -0.7760
   3243 H5'        27.7866  -21.6879   11.1768 H       101   A    0.0679
   3244 H5''       26.2769  -22.4838   10.6823 H       101   A    0.0679
   3245 H4'        26.8541  -22.5188   13.1642 H       101   A    0.1174
   3246 H3'        28.9198  -24.4629   12.1336 H       101   A    0.0615
   3247 H2'        28.5641  -25.8426   14.0430 H       101   A    0.0972
   3248 H1'        25.8151  -25.6072   13.9868 H       101   A    0.2007
   3249 H2         26.0627  -30.1838   14.9203 H       101   A    0.0473
   3250 H8         27.2148  -25.7270   10.4622 H       101   A    0.1553
   3251 H61        26.9456  -31.8849   10.8619 H       101   A    0.4115
   3252 H62        27.2307  -30.5208    9.8045 H       101   A    0.4115
   3253 HO2'       27.0851  -25.0447   15.7221 H       101   A    0.4186
   3254 P          30.7730  -23.5490   14.0490 P.3     102   A    1.1662
   3255 C5'        31.4620  -24.7460   16.2730 C.3     102   A    0.0558
   3256 O5'        30.4740  -24.0560   15.5270 O.3     102   A   -0.4989
   3257 C4'        30.8550  -25.8280   17.1270 C.3     102   A    0.1065
   3258 O4'        29.6280  -26.3130   16.5150 O.3     102   A   -0.3548
   3259 C3'        31.6920  -27.0830   17.2980 C.3     102   A    0.2022
   3260 O3'        32.7180  -26.9430   18.2610 O.3     102   A   -0.5246
   3261 C2'        30.6430  -28.1250   17.6470 C.3     102   A    0.0670
   3262 O2'        30.1920  -27.9600   18.9840 O.3     102   A   -0.6139
   3263 C1'        29.5190  -27.7100   16.7030 C.3     102   A    0.0394
   3264 N1         29.6130  -32.1740   14.1560 N.ar    102   A   -0.7615
   3265 C2         29.4420  -31.8780   15.4510 C.ar    102   A    0.5875
   3266 N3         29.4270  -30.6900   16.0480 N.ar    102   A   -0.6997
   3267 C4         29.6170  -29.7100   15.1480 C.ar    102   A    0.3053
   3268 C5         29.8100  -29.8530   13.7850 C.ar    102   A    0.0515
   3269 C6         29.8050  -31.1650   13.2780 C.ar    102   A    0.7009
   3270 N6         29.9770  -31.4650   11.9880 N.pl3   102   A   -0.9019
   3271 N7         29.9750  -28.6150   13.1800 N.ar    102   A   -0.6073
   3272 C8         29.8800  -27.7650   14.1740 C.ar    102   A    0.2006
   3273 N9         29.6560  -28.3610   15.3890 N.ar    102   A   -0.0251
   3274 OP1        31.6620  -22.3590   14.0910 O.co2   102   A   -0.7760
   3275 OP2        31.1550  -24.6960   13.1860 O.co2   102   A   -0.7760
   3276 H5'        32.1749  -25.1978   15.5832 H       102   A    0.0679
   3277 H5''       31.9856  -24.0367   16.9140 H       102   A    0.0679
   3278 H4'        30.6241  -25.4177   18.1101 H       102   A    0.1174
   3279 H3'        32.1409  -27.3414   16.3389 H       102   A    0.0615
   3280 H2'        30.9903  -29.1397   17.4522 H       102   A    0.0972
   3281 H1'        28.5519  -27.9541   17.1425 H       102   A    0.2007
   3282 H2         29.2953  -32.7257   16.1039 H       102   A    0.0473
   3283 H8         29.9697  -26.6961   14.0479 H       102   A    0.1553
   3284 H61        29.9623  -32.4291   11.6874 H       102   A    0.4115
   3285 H62        30.1218  -30.7277   11.3130 H       102   A    0.4115
   3286 HO2'       30.8893  -28.2175   19.5915 H       102   A    0.4186
   3287 P          34.2580  -27.0350   17.8080 P.3     103   G    1.1662
   3288 C5'        34.5050  -29.1570   19.3200 C.3     103   G    0.0558
   3289 O5'        34.5970  -28.5740   18.0300 O.3     103   G   -0.4989
   3290 C4'        34.0960  -30.6040   19.2450 C.3     103   G    0.1065
   3291 O4'        32.8540  -30.7290   18.5000 O.3     103   G   -0.3548
   3292 C3'        35.0470  -31.5320   18.5070 C.3     103   G    0.2022
   3293 O3'        36.1670  -31.9190   19.2800 O.3     103   G   -0.5246
   3294 C2'        34.1360  -32.6840   18.1270 C.3     103   G    0.0670
   3295 O2'        33.8500  -33.4920   19.2600 O.3     103   G   -0.6139
   3296 C1'        32.8670  -31.9260   17.7480 C.3     103   G    0.0191
   3297 N1         33.0570  -33.8030   13.0680 N.am    103   G   -0.4787
   3298 C2         33.0790  -34.4450   14.2830 C.2     103   G    0.7657
   3299 N2         33.1660  -35.7800   14.2600 N.pl3   103   G   -0.9672
   3300 N3         33.0210  -33.8230   15.4440 N.2     103   G   -0.6323
   3301 C4         32.9370  -32.4880   15.2930 C.ar    103   G    0.1222
   3302 C5         32.9090  -31.7450   14.1330 C.ar    103   G    0.1744
   3303 C6         32.9720  -32.4260   12.8880 C.2     103   G    0.4770
   3304 O6         32.9600  -31.9520   11.7450 O.2     103   G   -0.5597
   3305 N7         32.8180  -30.3900   14.4230 N.ar    103   G   -0.5709
   3306 C8         32.7940  -30.3400   15.7290 C.ar    103   G    0.1374
   3307 N9         32.8570  -31.5800   16.3150 N.ar    103   G    0.0492
   3308 OP1        35.0420  -26.2040   18.7540 O.co2   103   G   -0.7760
   3309 OP2        34.3090  -26.7090   16.3580 O.co2   103   G   -0.7760
   3310 H5'        35.4767  -29.0889   19.8092 H       103   G    0.0679
   3311 H5''       33.7697  -28.6081   19.9083 H       103   G    0.0679
   3312 H4'        33.9434  -30.9826   20.2557 H       103   G    0.1174
   3313 H3'        35.3941  -31.0380   17.5995 H       103   G    0.0615
   3314 H2'        34.5325  -33.2660   17.2951 H       103   G    0.0972
   3315 H1'        31.9900  -32.5261   17.9908 H       103   G    0.2006
   3316 H1         33.1065  -34.3773   12.2386 H       103   G    0.3424
   3317 H8         32.7311  -29.4187   16.2890 H       103   G    0.1640
   3318 H21        33.2115  -36.2680   13.3769 H       103   G    0.4364
   3319 H22        33.1862  -36.2997   15.1258 H       103   G    0.4364
   3320 HO2'       33.8858  -34.4181   19.0098 H       103   G    0.4186
   3321 P          37.5210  -32.3830   18.5500 P.3     104   A    1.1662
   3322 C5'        36.5560  -34.7790   18.9970 C.3     104   A    0.0558
   3323 O5'        37.6700  -33.8980   19.0140 O.3     104   A   -0.4989
   3324 C4'        36.8340  -36.0030   18.1660 C.3     104   A    0.1065
   3325 O4'        35.8250  -36.1350   17.1310 O.3     104   A   -0.3548
   3326 C3'        38.1470  -36.0020   17.4000 C.3     104   A    0.2022
   3327 O3'        39.2590  -36.3650   18.2020 O.3     104   A   -0.5246
   3328 C2'        37.8660  -36.9770   16.2670 C.3     104   A    0.0670
   3329 O2'        37.9270  -38.3170   16.7310 O.3     104   A   -0.6139
   3330 C1'        36.4100  -36.6430   15.9510 C.3     104   A    0.0394
   3331 N1         35.7500  -35.7880   10.9410 N.ar    104   A   -0.7615
   3332 C2         35.8140  -36.9140   11.6610 C.ar    104   A    0.5875
   3333 N3         35.9890  -37.0610   12.9700 N.ar    104   A   -0.6997
   3334 C4         36.1080  -35.8620   13.5640 C.ar    104   A    0.3053
   3335 C5         36.0660  -34.6190   12.9620 C.ar    104   A    0.0515
   3336 C6         35.8740  -34.6000   11.5710 C.ar    104   A    0.7009
   3337 N6         35.8090  -33.4810   10.8470 N.pl3   104   A   -0.9019
   3338 N7         36.2270  -33.6080   13.9010 N.ar    104   A   -0.6073
   3339 C8         36.3620  -34.2540   15.0340 C.ar    104   A    0.2006
   3340 N9         36.2990  -35.6190   14.8990 N.ar    104   A   -0.0251
   3341 OP1        37.2720  -32.3250   17.0890 O.co2   104   A   -0.7760
   3342 OP2        38.6220  -31.5720   19.1170 O.co2   104   A   -0.7760
   3343 H5'        36.3328  -35.0875   20.0183 H       104   A    0.0679
   3344 H5''       35.6930  -34.2559   18.5851 H       104   A    0.0679
   3345 H4'        36.7995  -36.8828   18.8086 H       104   A    0.1174
   3346 H3'        38.3164  -35.0093   16.9830 H       104   A    0.0615
   3347 H2'        38.5197  -36.8097   15.4110 H       104   A    0.0972
   3348 H1'        35.8852  -37.5465   15.6406 H       104   A    0.2007
   3349 H2         35.7088  -37.8310   11.1002 H       104   A    0.0473
   3350 H8         36.5088  -33.7596   15.9829 H       104   A    0.1553
   3351 H61        35.6693  -33.5332    9.8481 H       104   A    0.4115
   3352 H62        35.8995  -32.5818   11.2979 H       104   A    0.4115
   3353 HO2'       37.6990  -38.9141   16.0147 H       104   A    0.4186
   3354 P          40.7460  -35.9370   17.7640 P.3     105   U    1.1662
   3355 C5'        41.1440  -38.3630   16.8490 C.3     105   U    0.0558
   3356 O5'        41.0790  -36.9670   16.5950 O.3     105   U   -0.4989
   3357 C4'        41.0800  -39.1620   15.5710 C.3     105   U    0.1065
   3358 O4'        39.8230  -38.9000   14.8910 O.3     105   U   -0.3548
   3359 C3'        42.1370  -38.8360   14.5270 C.3     105   U    0.2022
   3360 O3'        43.3850  -39.4590   14.7810 O.3     105   U   -0.5246
   3361 C2'        41.4750  -39.2920   13.2350 C.3     105   U    0.0670
   3362 O2'        41.5370  -40.7060   13.1100 O.3     105   U   -0.6139
   3363 C1'        40.0220  -38.8940   13.4930 C.3     105   U    0.0674
   3364 N1         39.7210  -37.5380   12.9810 N.am    105   U    0.0418
   3365 C2         39.0360  -37.4360   11.7870 C.2     105   U    0.4687
   3366 O2         38.6750  -38.4080   11.1470 O.2     105   U   -0.5477
   3367 N3         38.7920  -36.1500   11.3690 N.am    105   U   -0.3549
   3368 C4         39.1520  -34.9810   12.0090 C.2     105   U    0.5952
   3369 O4         38.8600  -33.8960   11.5060 O.2     105   U   -0.5761
   3370 C5         39.8570  -35.1720   13.2400 C.2     105   U   -0.3635
   3371 C6         40.1090  -36.4110   13.6690 C.2     105   U   -0.1126
   3372 OP1        41.6310  -36.1890   18.9280 O.co2   105   U   -0.7760
   3373 OP2        40.6620  -34.5600   17.2150 O.co2   105   U   -0.7760
   3374 H5'        40.3059  -38.6462   17.4858 H       105   U    0.0679
   3375 H5''       42.0771  -38.5890   17.3652 H       105   U    0.0679
   3376 H4'        41.1371  -40.2232   15.8135 H       105   U    0.1174
   3377 H3'        42.2798  -37.7560   14.4911 H       105   U    0.0615
   3378 H2'        41.8888  -38.7859   12.3628 H       105   U    0.0972
   3379 H1'        39.3553  -39.6184   13.0251 H       105   U    0.1824
   3380 H3         38.2938  -36.0487   10.4963 H       105   U    0.3154
   3381 H5         40.1829  -34.3197   13.8178 H       105   U    0.1811
   3382 H6         40.6425  -36.5346   14.5999 H       105   U    0.2188
   3383 HO2'       40.9844  -40.9868   12.3769 H       105   U    0.4186
   3384 P          44.7540  -38.7180   14.3820 P.3     106   U    1.1662
   3385 C5'        44.5990  -40.0250   12.1140 C.3     106   U    0.0558
   3386 O5'        44.7420  -38.7850   12.7910 O.3     106   U   -0.4989
   3387 C4'        44.2350  -39.8260   10.6640 C.3     106   U    0.1065
   3388 O4'        42.9590  -39.1420   10.5660 O.3     106   U   -0.3548
   3389 C3'        45.1820  -38.9540    9.8550 C.3     106   U    0.2022
   3390 O3'        46.3350  -39.6490    9.4150 O.3     106   U   -0.5246
   3391 C2'        44.2930  -38.4620    8.7220 C.3     106   U    0.0670
   3392 O2'        44.1360  -39.4700    7.7320 O.3     106   U   -0.6139
   3393 C1'        42.9590  -38.2820    9.4440 C.3     106   U    0.0674
   3394 N1         42.7630  -36.8930    9.9140 N.am    106   U    0.0418
   3395 C2         42.4460  -35.9270    8.9780 C.2     106   U    0.4687
   3396 O2         42.3300  -36.1670    7.7870 O.2     106   U   -0.5477
   3397 N3         42.2750  -34.6600    9.4850 N.am    106   U   -0.3549
   3398 C4         42.3810  -34.2680   10.8040 C.2     106   U    0.5952
   3399 O4         42.1960  -33.0860   11.1070 O.2     106   U   -0.5761
   3400 C5         42.7090  -35.3270   11.7100 C.2     106   U   -0.3635
   3401 C6         42.8820  -36.5700   11.2460 C.2     106   U   -0.1126
   3402 OP1        45.8680  -39.5410   14.9130 O.co2   106   U   -0.7760
   3403 OP2        44.6360  -37.3080   14.8290 O.co2   106   U   -0.7760
   3404 H5'        45.5414  -40.5697   12.1706 H       106   U    0.0679
   3405 H5''       43.8187  -40.6098   12.6010 H       106   U    0.0679
   3406 H4'        44.1524  -40.8004   10.1826 H       106   U    0.1174
   3407 H3'        45.4892  -38.1026   10.4624 H       106   U    0.0615
   3408 H2'        44.6556  -37.5262    8.2967 H       106   U    0.0972
   3409 H1'        42.1438  -38.5576    8.7750 H       106   U    0.1824
   3410 H3         42.0466  -33.9365    8.8183 H       106   U    0.3154
   3411 H5         42.8165  -35.1231   12.7651 H       106   U    0.1811
   3412 H6         43.1257  -37.3540   11.9477 H       106   U    0.2188
   3413 HO2'       44.9670  -39.5957    7.2681 H       106   U    0.4186
   3414 P          47.6130  -38.8360    8.8830 P.3     107   C    1.1662
   3415 C5'        47.8500  -37.2600    6.8030 C.3     107   C    0.0558
   3416 O5'        47.1010  -38.2450    7.4960 O.3     107   C   -0.4989
   3417 C4'        47.1110  -36.7530    5.5910 C.3     107   C    0.1065
   3418 O4'        45.7480  -36.4040    5.9560 O.3     107   C   -0.3548
   3419 C3'        47.6620  -35.4820    4.9630 C.3     107   C    0.2022
   3420 O3'        48.7690  -35.7170    4.1110 O.3     107   C   -0.5246
   3421 C2'        46.4470  -34.9110    4.2490 C.3     107   C    0.0670
   3422 O2'        46.2050  -35.6070    3.0350 O.3     107   C   -0.6139
   3423 C1'        45.3350  -35.2620    5.2370 C.3     107   C    0.0066
   3424 N1         45.0870  -34.1690    6.2020 N.am    107   C   -0.0484
   3425 C2         44.6030  -32.9390    5.7430 C.2     107   C    0.7538
   3426 O2         44.3920  -32.7830    4.5300 O.2     107   C   -0.6252
   3427 N3         44.3790  -31.9450    6.6360 N.2     107   C   -0.7584
   3428 C4         44.6180  -32.1430    7.9330 C.2     107   C    0.8185
   3429 N4         44.3810  -31.1340    8.7750 N.pl3   107   C   -0.9530
   3430 C5         45.1100  -33.3860    8.4260 C.2     107   C   -0.5215
   3431 C6         45.3270  -34.3610    7.5340 C.2     107   C    0.0053
   3432 OP1        47.8570  -37.7310    9.8430 O.co2   107   C   -0.7760
   3433 OP2        48.6930  -39.8240    8.6450 O.co2   107   C   -0.7760
   3434 H5'        48.7968  -37.6954    6.4835 H       107   C    0.0679
   3435 H5''       48.0495  -36.4251    7.4747 H       107   C    0.0679
   3436 H4'        47.0858  -37.5392    4.8365 H       107   C    0.1174
   3437 H3'        47.9630  -34.7963    5.7551 H       107   C    0.0615
   3438 H2'        46.5318  -33.8354    4.0939 H       107   C    0.0972
   3439 H1'        44.4176  -35.4844    4.6919 H       107   C    0.2029
   3440 H5         45.3006  -33.5361    9.4784 H       107   C    0.1928
   3441 H6         45.6985  -35.3167    7.8733 H       107   C    0.1958
   3442 H41        44.0318  -30.2540    8.4231 H       107   C    0.4234
   3443 H42        44.5509  -31.2508    9.7637 H       107   C    0.4234
   3444 HO2'       46.8958  -35.3972    2.4022 H       107   C    0.4186
   3445 P          50.1780  -35.0000    4.4020 P.3     108   G    1.1662
   3446 C5'        49.7940  -33.2070    2.5260 C.3     108   G    0.0558
   3447 O5'        49.9230  -33.5060    3.9090 O.3     108   G   -0.4989
   3448 C4'        49.4630  -31.7540    2.2950 C.3     108   G    0.1065
   3449 O4'        48.1520  -31.4530    2.8370 O.3     108   G   -0.3548
   3450 C3'        50.3790  -30.7410    2.9640 C.3     108   G    0.2022
   3451 O3'        51.5880  -30.5310    2.2520 O.3     108   G   -0.6541
   3452 C2'        49.4970  -29.5010    3.0530 C.3     108   G    0.0670
   3453 O2'        49.4630  -28.8170    1.8070 O.3     108   G   -0.6139
   3454 C1'        48.1180  -30.1200    3.3030 C.3     108   G    0.0191
   3455 N1         46.0790  -27.4720    7.1490 N.am    108   G   -0.4787
   3456 C2         46.2700  -27.1040    5.8400 C.2     108   G    0.7657
   3457 N2         45.8660  -25.8690    5.5060 N.pl3   108   G   -0.9672
   3458 N3         46.8160  -27.8890    4.9260 N.2     108   G   -0.6323
   3459 C4         47.1630  -29.0950    5.4320 C.ar    108   G    0.1222
   3460 C5         47.0150  -29.5590    6.7230 C.ar    108   G    0.1744
   3461 C6         46.4270  -28.7050    7.6930 C.2     108   G    0.4770
   3462 O6         46.2080  -28.9310    8.8890 O.2     108   G   -0.5597
   3463 N7         47.5010  -30.8570    6.8380 N.ar    108   G   -0.5709
   3464 C8         47.9270  -31.1530    5.6380 C.ar    108   G    0.1374
   3465 N9         47.7580  -30.1280    4.7370 N.ar    108   G    0.0492
   3466 OP1        51.1880  -35.6530    3.5340 O.co2   108   G   -0.7760
   3467 OP2        50.3820  -35.0200    5.8720 O.co2   108   G   -0.7760
   3468 H5'        50.7346  -33.4381    2.0261 H       108   G    0.0679
   3469 H5''       49.0032  -33.8246    2.1003 H       108   G    0.0679
   3470 H4'        49.4519  -31.5626    1.2220 H       108   G    0.1174
   3471 H3'        50.6140  -31.0841    3.9716 H       108   G    0.0615
   3472 H2'        49.8010  -28.8444    3.8682 H       108   G    0.0972
   3473 H1'        47.3658  -29.5621    2.7454 H       108   G    0.2006
   3474 H1         45.6526  -26.7950    7.7654 H       108   G    0.3424
   3475 H8         48.3667  -32.1052    5.3806 H       108   G    0.1640
   3476 H21        45.4487  -25.2685    6.2027 H       108   G    0.4364
   3477 H22        45.9792  -25.5398    4.5579 H       108   G    0.4364
   3478 HO2'       50.3210  -28.4224    1.6345 H       108   G    0.4186
   3479 HO3'       52.1256  -29.8855    2.7167 H       108   G    0.4376
@<TRIPOS>BOND
     1    1    2 1
     2    1    3 1
     3    3    5 1
     4    3    4 1
     5    4    9 1
     6    5    7 1
     7    5    6 1
     8    7    9 1
     9    7    8 1
    10    9   20 1
    11   10   11 1
    12   10   16 am
    13   11   12 2
    14   11   13 2
    15   13   14 1
    16   14   20 ar
    17   14   15 ar
    18   15   18 ar
    19   15   16 1
    20   16   17 2
    21   18   19 ar
    22   19   20 ar
    23   33   53 1
    24   33   54 1
    25   33   35 1
    26   34   36 1
    27   34   35 1
    28   36   38 1
    29   36   37 1
    30   37   42 1
    31   38   39 1
    32   38   40 1
    33   40   42 1
    34   40   41 1
    35   42   52 1
    36   43   44 ar
    37   43   48 ar
    38   44   45 ar
    39   45   46 ar
    40   46   52 ar
    41   46   47 ar
    42   47   50 ar
    43   47   48 ar
    44   48   49 1
    45   50   51 ar
    46   51   52 ar
    47    6   33 1
    48   66   85 1
    49   66   68 1
    50   66   84 1
    51   67   69 1
    52   67   68 1
    53   69   70 1
    54   69   71 1
    55   70   75 1
    56   71   72 1
    57   71   73 1
    58   73   75 1
    59   73   74 1
    60   75   76 1
    61   76   83 1
    62   76   77 am
    63   77   79 am
    64   77   78 2
    65   79   80 am
    66   80   81 2
    67   80   82 1
    68   82   83 2
    69   39   66 1
    70   96  114 1
    71   96  115 1
    72   96   98 1
    73   97   98 1
    74   97   99 1
    75   99  101 1
    76   99  100 1
    77  100  105 1
    78  101  103 1
    79  101  102 1
    80  103  104 1
    81  103  105 1
    82  105  106 1
    83  106  107 am
    84  106  113 1
    85  107  109 1
    86  107  108 2
    87  109  110 2
    88  110  112 2
    89  110  111 2
    90  112  113 2
    91   72   96 1
    92  127  146 1
    93  127  129 1
    94  127  145 1
    95  128  130 1
    96  128  129 1
    97  130  131 1
    98  130  132 1
    99  131  136 1
   100  132  133 1
   101  132  134 1
   102  134  136 1
   103  134  135 1
   104  136  137 1
   105  137  144 1
   106  137  138 am
   107  138  140 am
   108  138  139 2
   109  140  141 am
   110  141  142 2
   111  141  143 1
   112  143  144 2
   113  102  127 1
   114  157  176 1
   115  157  159 1
   116  157  175 1
   117  158  160 1
   118  158  159 1
   119  160  161 1
   120  160  162 1
   121  161  166 1
   122  162  163 1
   123  162  164 1
   124  164  166 1
   125  164  165 1
   126  166  167 1
   127  167  174 1
   128  167  168 am
   129  168  170 am
   130  168  169 2
   131  170  171 am
   132  171  172 2
   133  171  173 1
   134  173  174 2
   135  133  157 1
   136  187  205 1
   137  187  206 1
   138  187  189 1
   139  188  189 1
   140  188  190 1
   141  190  192 1
   142  190  191 1
   143  191  196 1
   144  192  194 1
   145  192  193 1
   146  194  195 1
   147  194  196 1
   148  196  197 1
   149  197  198 am
   150  197  204 1
   151  198  200 1
   152  198  199 2
   153  200  201 2
   154  201  203 2
   155  201  202 2
   156  203  204 2
   157  163  187 1
   158  218  239 1
   159  218  240 1
   160  218  220 1
   161  219  220 1
   162  219  221 1
   163  221  223 1
   164  221  222 1
   165  222  227 1
   166  223  225 1
   167  223  224 1
   168  225  227 1
   169  225  226 1
   170  227  238 1
   171  228  229 1
   172  228  234 am
   173  229  230 2
   174  229  231 2
   175  231  232 1
   176  232  238 ar
   177  232  233 ar
   178  233  236 ar
   179  233  234 1
   180  234  235 2
   181  236  237 ar
   182  237  238 ar
   183  193  218 1
   184  252  273 1
   185  252  274 1
   186  252  254 1
   187  253  254 1
   188  253  255 1
   189  255  257 1
   190  255  256 1
   191  256  261 1
   192  257  259 1
   193  257  258 1
   194  259  261 1
   195  259  260 1
   196  261  272 1
   197  262  263 1
   198  262  268 am
   199  263  264 2
   200  263  265 2
   201  265  266 1
   202  266  272 ar
   203  266  267 ar
   204  267  270 ar
   205  267  268 1
   206  268  269 2
   207  270  271 ar
   208  271  272 ar
   209  224  252 1
   210  286  307 1
   211  286  308 1
   212  286  288 1
   213  287  288 1
   214  287  289 1
   215  289  291 1
   216  289  290 1
   217  290  295 1
   218  291  293 1
   219  291  292 1
   220  293  295 1
   221  293  294 1
   222  295  306 1
   223  296  297 1
   224  296  302 am
   225  297  298 2
   226  297  299 2
   227  299  300 1
   228  300  306 ar
   229  300  301 ar
   230  301  304 ar
   231  301  302 1
   232  302  303 2
   233  304  305 ar
   234  305  306 ar
   235  258  286 1
   236  320  341 1
   237  320  342 1
   238  320  322 1
   239  321  322 1
   240  321  323 1
   241  323  325 1
   242  323  324 1
   243  324  329 1
   244  325  327 1
   245  325  326 1
   246  327  329 1
   247  327  328 1
   248  329  340 1
   249  330  331 1
   250  330  336 am
   251  331  332 2
   252  331  333 2
   253  333  334 1
   254  334  340 ar
   255  334  335 ar
   256  335  338 ar
   257  335  336 1
   258  336  337 2
   259  338  339 ar
   260  339  340 ar
   261  292  320 1
   262  354  372 1
   263  354  373 1
   264  354  356 1
   265  355  356 1
   266  355  357 1
   267  357  359 1
   268  357  358 1
   269  358  363 1
   270  359  361 1
   271  359  360 1
   272  361  362 1
   273  361  363 1
   274  363  364 1
   275  364  365 am
   276  364  371 1
   277  365  367 1
   278  365  366 2
   279  367  368 2
   280  368  370 2
   281  368  369 2
   282  370  371 2
   283  326  354 1
   284  385  405 1
   285  385  406 1
   286  385  387 1
   287  386  388 1
   288  386  387 1
   289  388  390 1
   290  388  389 1
   291  389  394 1
   292  390  391 1
   293  390  392 1
   294  392  394 1
   295  392  393 1
   296  394  404 1
   297  395  396 ar
   298  395  400 ar
   299  396  397 ar
   300  397  398 ar
   301  398  404 ar
   302  398  399 ar
   303  399  402 ar
   304  399  400 ar
   305  400  401 1
   306  402  403 ar
   307  403  404 ar
   308  360  385 1
   309  418  439 1
   310  418  440 1
   311  418  420 1
   312  419  420 1
   313  419  421 1
   314  421  423 1
   315  421  422 1
   316  422  427 1
   317  423  425 1
   318  423  424 1
   319  425  427 1
   320  425  426 1
   321  427  438 1
   322  428  429 1
   323  428  434 am
   324  429  430 2
   325  429  431 2
   326  431  432 1
   327  432  438 ar
   328  432  433 ar
   329  433  436 ar
   330  433  434 1
   331  434  435 2
   332  436  437 ar
   333  437  438 ar
   334  391  418 1
   335  452  473 1
   336  452  474 1
   337  452  454 1
   338  453  454 1
   339  453  455 1
   340  455  457 1
   341  455  456 1
   342  456  461 1
   343  457  459 1
   344  457  458 1
   345  459  461 1
   346  459  460 1
   347  461  472 1
   348  462  463 1
   349  462  468 am
   350  463  464 2
   351  463  465 2
   352  465  466 1
   353  466  472 ar
   354  466  467 ar
   355  467  470 ar
   356  467  468 1
   357  468  469 2
   358  470  471 ar
   359  471  472 ar
   360  424  452 1
   361  486  507 1
   362  486  508 1
   363  486  488 1
   364  487  488 1
   365  487  489 1
   366  489  491 1
   367  489  490 1
   368  490  495 1
   369  491  493 1
   370  491  492 1
   371  493  495 1
   372  493  494 1
   373  495  506 1
   374  496  497 1
   375  496  502 am
   376  497  498 2
   377  497  499 2
   378  499  500 1
   379  500  506 ar
   380  500  501 ar
   381  501  504 ar
   382  501  502 1
   383  502  503 2
   384  504  505 ar
   385  505  506 ar
   386  458  486 1
   387  520  539 1
   388  520  522 1
   389  520  538 1
   390  521  523 1
   391  521  522 1
   392  523  524 1
   393  523  525 1
   394  524  529 1
   395  525  526 1
   396  525  527 1
   397  527  529 1
   398  527  528 1
   399  529  530 1
   400  530  537 1
   401  530  531 am
   402  531  533 am
   403  531  532 2
   404  533  534 am
   405  534  535 2
   406  534  536 1
   407  536  537 2
   408  492  520 1
   409  550  571 1
   410  550  572 1
   411  550  552 1
   412  551  552 1
   413  551  553 1
   414  553  555 1
   415  553  554 1
   416  554  559 1
   417  555  557 1
   418  555  556 1
   419  557  559 1
   420  557  558 1
   421  559  570 1
   422  560  561 1
   423  560  566 am
   424  561  562 2
   425  561  563 2
   426  563  564 1
   427  564  570 ar
   428  564  565 ar
   429  565  568 ar
   430  565  566 1
   431  566  567 2
   432  568  569 ar
   433  569  570 ar
   434  526  550 1
   435  584  604 1
   436  584  605 1
   437  584  586 1
   438  585  587 1
   439  585  586 1
   440  587  589 1
   441  587  588 1
   442  588  593 1
   443  589  590 1
   444  589  591 1
   445  591  593 1
   446  591  592 1
   447  593  603 1
   448  594  595 ar
   449  594  599 ar
   450  595  596 ar
   451  596  597 ar
   452  597  603 ar
   453  597  598 ar
   454  598  601 ar
   455  598  599 ar
   456  599  600 1
   457  601  602 ar
   458  602  603 ar
   459  556  584 1
   460  617  637 1
   461  617  638 1
   462  617  619 1
   463  618  620 1
   464  618  619 1
   465  620  622 1
   466  620  621 1
   467  621  626 1
   468  622  623 1
   469  622  624 1
   470  624  626 1
   471  624  625 1
   472  626  636 1
   473  627  628 ar
   474  627  632 ar
   475  628  629 ar
   476  629  630 ar
   477  630  636 ar
   478  630  631 ar
   479  631  634 ar
   480  631  632 ar
   481  632  633 1
   482  634  635 ar
   483  635  636 ar
   484  590  617 1
   485  650  670 1
   486  650  671 1
   487  650  652 1
   488  651  653 1
   489  651  652 1
   490  653  655 1
   491  653  654 1
   492  654  659 1
   493  655  656 1
   494  655  657 1
   495  657  659 1
   496  657  658 1
   497  659  669 1
   498  660  661 ar
   499  660  665 ar
   500  661  662 ar
   501  662  663 ar
   502  663  669 ar
   503  663  664 ar
   504  664  667 ar
   505  664  665 ar
   506  665  666 1
   507  667  668 ar
   508  668  669 ar
   509  623  650 1
   510  683  702 1
   511  683  685 1
   512  683  701 1
   513  684  686 1
   514  684  685 1
   515  686  687 1
   516  686  688 1
   517  687  692 1
   518  688  689 1
   519  688  690 1
   520  690  692 1
   521  690  691 1
   522  692  693 1
   523  693  700 1
   524  693  694 am
   525  694  696 am
   526  694  695 2
   527  696  697 am
   528  697  698 2
   529  697  699 1
   530  699  700 2
   531  656  683 1
   532  713  732 1
   533  713  715 1
   534  713  731 1
   535  714  716 1
   536  714  715 1
   537  716  717 1
   538  716  718 1
   539  717  722 1
   540  718  719 1
   541  718  720 1
   542  720  722 1
   543  720  721 1
   544  722  723 1
   545  723  730 1
   546  723  724 am
   547  724  726 am
   548  724  725 2
   549  726  727 am
   550  727  728 2
   551  727  729 1
   552  729  730 2
   553  689  713 1
   554  743  761 1
   555  743  762 1
   556  743  745 1
   557  744  745 1
   558  744  746 1
   559  746  748 1
   560  746  747 1
   561  747  752 1
   562  748  750 1
   563  748  749 1
   564  750  751 1
   565  750  752 1
   566  752  753 1
   567  753  754 am
   568  753  760 1
   569  754  756 1
   570  754  755 2
   571  756  757 2
   572  757  759 2
   573  757  758 2
   574  759  760 2
   575  719  743 1
   576  774  792 1
   577  774  793 1
   578  774  776 1
   579  775  776 1
   580  775  777 1
   581  777  779 1
   582  777  778 1
   583  778  783 1
   584  779  781 1
   585  779  780 1
   586  781  782 1
   587  781  783 1
   588  783  784 1
   589  784  785 am
   590  784  791 1
   591  785  787 1
   592  785  786 2
   593  787  788 2
   594  788  790 2
   595  788  789 2
   596  790  791 2
   597  749  774 1
   598  805  823 1
   599  805  824 1
   600  805  807 1
   601  806  807 1
   602  806  808 1
   603  808  810 1
   604  808  809 1
   605  809  814 1
   606  810  812 1
   607  810  811 1
   608  812  813 1
   609  812  814 1
   610  814  815 1
   611  815  816 am
   612  815  822 1
   613  816  818 1
   614  816  817 2
   615  818  819 2
   616  819  821 2
   617  819  820 2
   618  821  822 2
   619  780  805 1
   620  836  857 1
   621  836  858 1
   622  836  838 1
   623  837  838 1
   624  837  839 1
   625  839  841 1
   626  839  840 1
   627  840  845 1
   628  841  843 1
   629  841  842 1
   630  843  845 1
   631  843  844 1
   632  845  856 1
   633  846  847 1
   634  846  852 am
   635  847  848 2
   636  847  849 2
   637  849  850 1
   638  850  856 ar
   639  850  851 ar
   640  851  854 ar
   641  851  852 1
   642  852  853 2
   643  854  855 ar
   644  855  856 ar
   645  811  836 1
   646  870  890 1
   647  870  891 1
   648  870  872 1
   649  871  873 1
   650  871  872 1
   651  873  875 1
   652  873  874 1
   653  874  879 1
   654  875  876 1
   655  875  877 1
   656  877  879 1
   657  877  878 1
   658  879  889 1
   659  880  881 ar
   660  880  885 ar
   661  881  882 ar
   662  882  883 ar
   663  883  889 ar
   664  883  884 ar
   665  884  887 ar
   666  884  885 ar
   667  885  886 1
   668  887  888 ar
   669  888  889 ar
   670  842  870 1
   671  903  921 1
   672  903  922 1
   673  903  905 1
   674  904  905 1
   675  904  906 1
   676  906  908 1
   677  906  907 1
   678  907  912 1
   679  908  910 1
   680  908  909 1
   681  910  911 1
   682  910  912 1
   683  912  913 1
   684  913  914 am
   685  913  920 1
   686  914  916 1
   687  914  915 2
   688  916  917 2
   689  917  919 2
   690  917  918 2
   691  919  920 2
   692  876  903 1
   693  934  952 1
   694  934  953 1
   695  934  936 1
   696  935  936 1
   697  935  937 1
   698  937  939 1
   699  937  938 1
   700  938  943 1
   701  939  941 1
   702  939  940 1
   703  941  942 1
   704  941  943 1
   705  943  944 1
   706  944  945 am
   707  944  951 1
   708  945  947 1
   709  945  946 2
   710  947  948 2
   711  948  950 2
   712  948  949 2
   713  950  951 2
   714  909  934 1
   715  965  986 1
   716  965  987 1
   717  965  967 1
   718  966  967 1
   719  966  968 1
   720  968  970 1
   721  968  969 1
   722  969  974 1
   723  970  972 1
   724  970  971 1
   725  972  974 1
   726  972  973 1
   727  974  985 1
   728  975  976 1
   729  975  981 am
   730  976  977 2
   731  976  978 2
   732  978  979 1
   733  979  985 ar
   734  979  980 ar
   735  980  983 ar
   736  980  981 1
   737  981  982 2
   738  983  984 ar
   739  984  985 ar
   740  940  965 1
   741  999 1020 1
   742  999 1021 1
   743  999 1001 1
   744 1000 1001 1
   745 1000 1002 1
   746 1002 1004 1
   747 1002 1003 1
   748 1003 1008 1
   749 1004 1006 1
   750 1004 1005 1
   751 1006 1008 1
   752 1006 1007 1
   753 1008 1019 1
   754 1009 1010 1
   755 1009 1015 am
   756 1010 1011 2
   757 1010 1012 2
   758 1012 1013 1
   759 1013 1019 ar
   760 1013 1014 ar
   761 1014 1017 ar
   762 1014 1015 1
   763 1015 1016 2
   764 1017 1018 ar
   765 1018 1019 ar
   766  971  999 1
   767 1033 1052 1
   768 1033 1035 1
   769 1033 1051 1
   770 1034 1036 1
   771 1034 1035 1
   772 1036 1037 1
   773 1036 1038 1
   774 1037 1042 1
   775 1038 1039 1
   776 1038 1040 1
   777 1040 1042 1
   778 1040 1041 1
   779 1042 1043 1
   780 1043 1050 1
   781 1043 1044 am
   782 1044 1046 am
   783 1044 1045 2
   784 1046 1047 am
   785 1047 1048 2
   786 1047 1049 1
   787 1049 1050 2
   788 1005 1033 1
   789 1063 1084 1
   790 1063 1085 1
   791 1063 1065 1
   792 1064 1065 1
   793 1064 1066 1
   794 1066 1068 1
   795 1066 1067 1
   796 1067 1072 1
   797 1068 1070 1
   798 1068 1069 1
   799 1070 1072 1
   800 1070 1071 1
   801 1072 1083 1
   802 1073 1074 1
   803 1073 1079 am
   804 1074 1075 2
   805 1074 1076 2
   806 1076 1077 1
   807 1077 1083 ar
   808 1077 1078 ar
   809 1078 1081 ar
   810 1078 1079 1
   811 1079 1080 2
   812 1081 1082 ar
   813 1082 1083 ar
   814 1039 1063 1
   815 1097 1118 1
   816 1097 1119 1
   817 1097 1099 1
   818 1098 1099 1
   819 1098 1100 1
   820 1100 1102 1
   821 1100 1101 1
   822 1101 1106 1
   823 1102 1104 1
   824 1102 1103 1
   825 1104 1106 1
   826 1104 1105 1
   827 1106 1117 1
   828 1107 1108 1
   829 1107 1113 am
   830 1108 1109 2
   831 1108 1110 2
   832 1110 1111 1
   833 1111 1117 ar
   834 1111 1112 ar
   835 1112 1115 ar
   836 1112 1113 1
   837 1113 1114 2
   838 1115 1116 ar
   839 1116 1117 ar
   840 1069 1097 1
   841 1131 1150 1
   842 1131 1133 1
   843 1131 1149 1
   844 1132 1134 1
   845 1132 1133 1
   846 1134 1135 1
   847 1134 1136 1
   848 1135 1140 1
   849 1136 1137 1
   850 1136 1138 1
   851 1138 1140 1
   852 1138 1139 1
   853 1140 1141 1
   854 1141 1148 1
   855 1141 1142 am
   856 1142 1144 am
   857 1142 1143 2
   858 1144 1145 am
   859 1145 1146 2
   860 1145 1147 1
   861 1147 1148 2
   862 1103 1131 1
   863 1161 1181 1
   864 1161 1182 1
   865 1161 1163 1
   866 1162 1164 1
   867 1162 1163 1
   868 1164 1166 1
   869 1164 1165 1
   870 1165 1170 1
   871 1166 1167 1
   872 1166 1168 1
   873 1168 1170 1
   874 1168 1169 1
   875 1170 1180 1
   876 1171 1172 ar
   877 1171 1176 ar
   878 1172 1173 ar
   879 1173 1174 ar
   880 1174 1180 ar
   881 1174 1175 ar
   882 1175 1178 ar
   883 1175 1176 ar
   884 1176 1177 1
   885 1178 1179 ar
   886 1179 1180 ar
   887 1137 1161 1
   888 1194 1213 1
   889 1194 1196 1
   890 1194 1212 1
   891 1195 1197 1
   892 1195 1196 1
   893 1197 1198 1
   894 1197 1199 1
   895 1198 1203 1
   896 1199 1200 1
   897 1199 1201 1
   898 1201 1203 1
   899 1201 1202 1
   900 1203 1204 1
   901 1204 1211 1
   902 1204 1205 am
   903 1205 1207 am
   904 1205 1206 2
   905 1207 1208 am
   906 1208 1209 2
   907 1208 1210 1
   908 1210 1211 2
   909 1167 1194 1
   910 1224 1244 1
   911 1224 1245 1
   912 1224 1226 1
   913 1225 1227 1
   914 1225 1226 1
   915 1227 1229 1
   916 1227 1228 1
   917 1228 1233 1
   918 1229 1230 1
   919 1229 1231 1
   920 1231 1233 1
   921 1231 1232 1
   922 1233 1243 1
   923 1234 1235 ar
   924 1234 1239 ar
   925 1235 1236 ar
   926 1236 1237 ar
   927 1237 1243 ar
   928 1237 1238 ar
   929 1238 1241 ar
   930 1238 1239 ar
   931 1239 1240 1
   932 1241 1242 ar
   933 1242 1243 ar
   934 1200 1224 1
   935 1257 1278 1
   936 1257 1279 1
   937 1257 1259 1
   938 1258 1259 1
   939 1258 1260 1
   940 1260 1262 1
   941 1260 1261 1
   942 1261 1266 1
   943 1262 1264 1
   944 1262 1263 1
   945 1264 1266 1
   946 1264 1265 1
   947 1266 1277 1
   948 1267 1268 1
   949 1267 1273 am
   950 1268 1269 2
   951 1268 1270 2
   952 1270 1271 1
   953 1271 1277 ar
   954 1271 1272 ar
   955 1272 1275 ar
   956 1272 1273 1
   957 1273 1274 2
   958 1275 1276 ar
   959 1276 1277 ar
   960 1230 1257 1
   961 1291 1310 1
   962 1291 1293 1
   963 1291 1309 1
   964 1292 1294 1
   965 1292 1293 1
   966 1294 1295 1
   967 1294 1296 1
   968 1295 1300 1
   969 1296 1297 1
   970 1296 1298 1
   971 1298 1300 1
   972 1298 1299 1
   973 1300 1301 1
   974 1301 1308 1
   975 1301 1302 am
   976 1302 1304 am
   977 1302 1303 2
   978 1304 1305 am
   979 1305 1306 2
   980 1305 1307 1
   981 1307 1308 2
   982 1263 1291 1
   983 1321 1339 1
   984 1321 1340 1
   985 1321 1323 1
   986 1322 1323 1
   987 1322 1324 1
   988 1324 1326 1
   989 1324 1325 1
   990 1325 1330 1
   991 1326 1328 1
   992 1326 1327 1
   993 1328 1329 1
   994 1328 1330 1
   995 1330 1331 1
   996 1331 1332 am
   997 1331 1338 1
   998 1332 1334 1
   999 1332 1333 2
  1000 1334 1335 2
  1001 1335 1337 2
  1002 1335 1336 2
  1003 1337 1338 2
  1004 1297 1321 1
  1005 1352 1370 1
  1006 1352 1371 1
  1007 1352 1354 1
  1008 1353 1354 1
  1009 1353 1355 1
  1010 1355 1357 1
  1011 1355 1356 1
  1012 1356 1361 1
  1013 1357 1359 1
  1014 1357 1358 1
  1015 1359 1360 1
  1016 1359 1361 1
  1017 1361 1362 1
  1018 1362 1363 am
  1019 1362 1369 1
  1020 1363 1365 1
  1021 1363 1364 2
  1022 1365 1366 2
  1023 1366 1368 2
  1024 1366 1367 2
  1025 1368 1369 2
  1026 1327 1352 1
  1027 1383 1403 1
  1028 1383 1404 1
  1029 1383 1385 1
  1030 1384 1386 1
  1031 1384 1385 1
  1032 1386 1388 1
  1033 1386 1387 1
  1034 1387 1392 1
  1035 1388 1389 1
  1036 1388 1390 1
  1037 1390 1392 1
  1038 1390 1391 1
  1039 1392 1402 1
  1040 1393 1394 ar
  1041 1393 1398 ar
  1042 1394 1395 ar
  1043 1395 1396 ar
  1044 1396 1402 ar
  1045 1396 1397 ar
  1046 1397 1400 ar
  1047 1397 1398 ar
  1048 1398 1399 1
  1049 1400 1401 ar
  1050 1401 1402 ar
  1051 1358 1383 1
  1052 1416 1434 1
  1053 1416 1435 1
  1054 1416 1418 1
  1055 1417 1418 1
  1056 1417 1419 1
  1057 1419 1421 1
  1058 1419 1420 1
  1059 1420 1425 1
  1060 1421 1423 1
  1061 1421 1422 1
  1062 1423 1424 1
  1063 1423 1425 1
  1064 1425 1426 1
  1065 1426 1427 am
  1066 1426 1433 1
  1067 1427 1429 1
  1068 1427 1428 2
  1069 1429 1430 2
  1070 1430 1432 2
  1071 1430 1431 2
  1072 1432 1433 2
  1073 1389 1416 1
  1074 1447 1468 1
  1075 1447 1469 1
  1076 1447 1449 1
  1077 1448 1449 1
  1078 1448 1450 1
  1079 1450 1452 1
  1080 1450 1451 1
  1081 1451 1456 1
  1082 1452 1454 1
  1083 1452 1453 1
  1084 1454 1456 1
  1085 1454 1455 1
  1086 1456 1467 1
  1087 1457 1458 1
  1088 1457 1463 am
  1089 1458 1459 2
  1090 1458 1460 2
  1091 1460 1461 1
  1092 1461 1467 ar
  1093 1461 1462 ar
  1094 1462 1465 ar
  1095 1462 1463 1
  1096 1463 1464 2
  1097 1465 1466 ar
  1098 1466 1467 ar
  1099 1422 1447 1
  1100 1481 1501 1
  1101 1481 1502 1
  1102 1481 1483 1
  1103 1482 1484 1
  1104 1482 1483 1
  1105 1484 1486 1
  1106 1484 1485 1
  1107 1485 1490 1
  1108 1486 1487 1
  1109 1486 1488 1
  1110 1488 1490 1
  1111 1488 1489 1
  1112 1490 1500 1
  1113 1491 1492 ar
  1114 1491 1496 ar
  1115 1492 1493 ar
  1116 1493 1494 ar
  1117 1494 1500 ar
  1118 1494 1495 ar
  1119 1495 1498 ar
  1120 1495 1496 ar
  1121 1496 1497 1
  1122 1498 1499 ar
  1123 1499 1500 ar
  1124 1453 1481 1
  1125 1514 1534 1
  1126 1514 1535 1
  1127 1514 1516 1
  1128 1515 1517 1
  1129 1515 1516 1
  1130 1517 1519 1
  1131 1517 1518 1
  1132 1518 1523 1
  1133 1519 1520 1
  1134 1519 1521 1
  1135 1521 1523 1
  1136 1521 1522 1
  1137 1523 1533 1
  1138 1524 1525 ar
  1139 1524 1529 ar
  1140 1525 1526 ar
  1141 1526 1527 ar
  1142 1527 1533 ar
  1143 1527 1528 ar
  1144 1528 1531 ar
  1145 1528 1529 ar
  1146 1529 1530 1
  1147 1531 1532 ar
  1148 1532 1533 ar
  1149 1487 1514 1
  1150 1547 1566 1
  1151 1547 1549 1
  1152 1547 1565 1
  1153 1548 1550 1
  1154 1548 1549 1
  1155 1550 1551 1
  1156 1550 1552 1
  1157 1551 1556 1
  1158 1552 1553 1
  1159 1552 1554 1
  1160 1554 1556 1
  1161 1554 1555 1
  1162 1556 1557 1
  1163 1557 1564 1
  1164 1557 1558 am
  1165 1558 1560 am
  1166 1558 1559 2
  1167 1560 1561 am
  1168 1561 1562 2
  1169 1561 1563 1
  1170 1563 1564 2
  1171 1520 1547 1
  1172 1577 1595 1
  1173 1577 1596 1
  1174 1577 1579 1
  1175 1578 1579 1
  1176 1578 1580 1
  1177 1580 1582 1
  1178 1580 1581 1
  1179 1581 1586 1
  1180 1582 1584 1
  1181 1582 1583 1
  1182 1584 1585 1
  1183 1584 1586 1
  1184 1586 1587 1
  1185 1587 1588 am
  1186 1587 1594 1
  1187 1588 1590 1
  1188 1588 1589 2
  1189 1590 1591 2
  1190 1591 1593 2
  1191 1591 1592 2
  1192 1593 1594 2
  1193 1553 1577 1
  1194 1608 1626 1
  1195 1608 1627 1
  1196 1608 1610 1
  1197 1609 1610 1
  1198 1609 1611 1
  1199 1611 1613 1
  1200 1611 1612 1
  1201 1612 1617 1
  1202 1613 1615 1
  1203 1613 1614 1
  1204 1615 1616 1
  1205 1615 1617 1
  1206 1617 1618 1
  1207 1618 1619 am
  1208 1618 1625 1
  1209 1619 1621 1
  1210 1619 1620 2
  1211 1621 1622 2
  1212 1622 1624 2
  1213 1622 1623 2
  1214 1624 1625 2
  1215 1583 1608 1
  1216 1640 1641 1
  1217 1640 1642 1
  1218 1642 1644 1
  1219 1642 1643 1
  1220 1643 1648 1
  1221 1644 1646 1
  1222 1644 1645 1
  1223 1646 1647 1
  1224 1646 1648 1
  1225 1648 1658 1
  1226 1649 1654 ar
  1227 1649 1650 ar
  1228 1650 1651 ar
  1229 1651 1652 ar
  1230 1652 1658 ar
  1231 1652 1653 ar
  1232 1653 1656 ar
  1233 1653 1654 ar
  1234 1654 1655 1
  1235 1656 1657 ar
  1236 1657 1658 ar
  1237 1639 1641 1
  1238 1639 1659 1
  1239 1639 1660 1
  1240 1614 1639 1
  1241 1673 1674 1
  1242 1673 1675 1
  1243 1675 1677 1
  1244 1675 1676 1
  1245 1676 1681 1
  1246 1677 1679 1
  1247 1677 1678 1
  1248 1679 1681 1
  1249 1679 1680 1
  1250 1681 1692 1
  1251 1682 1683 1
  1252 1682 1688 am
  1253 1683 1684 2
  1254 1683 1685 2
  1255 1685 1686 1
  1256 1686 1692 ar
  1257 1686 1687 ar
  1258 1687 1690 ar
  1259 1687 1688 1
  1260 1688 1689 2
  1261 1690 1691 ar
  1262 1691 1692 ar
  1263 1705 1725 1
  1264 1705 1726 1
  1265 1705 1707 1
  1266 1706 1708 1
  1267 1706 1707 1
  1268 1708 1710 1
  1269 1708 1709 1
  1270 1709 1714 1
  1271 1710 1711 1
  1272 1710 1712 1
  1273 1712 1714 1
  1274 1712 1713 1
  1275 1714 1724 1
  1276 1715 1716 ar
  1277 1715 1720 ar
  1278 1716 1717 ar
  1279 1717 1718 ar
  1280 1718 1724 ar
  1281 1718 1719 ar
  1282 1719 1722 ar
  1283 1719 1720 ar
  1284 1720 1721 1
  1285 1722 1723 ar
  1286 1723 1724 ar
  1287 1678 1705 1
  1288 1738 1757 1
  1289 1738 1740 1
  1290 1738 1756 1
  1291 1739 1741 1
  1292 1739 1740 1
  1293 1741 1742 1
  1294 1741 1743 1
  1295 1742 1747 1
  1296 1743 1744 1
  1297 1743 1745 1
  1298 1745 1747 1
  1299 1745 1746 1
  1300 1747 1748 1
  1301 1748 1755 1
  1302 1748 1749 am
  1303 1749 1751 am
  1304 1749 1750 2
  1305 1751 1752 am
  1306 1752 1753 2
  1307 1752 1754 1
  1308 1754 1755 2
  1309 1711 1738 1
  1310 1768 1787 1
  1311 1768 1770 1
  1312 1768 1786 1
  1313 1769 1771 1
  1314 1769 1770 1
  1315 1771 1772 1
  1316 1771 1773 1
  1317 1772 1777 1
  1318 1773 1774 1
  1319 1773 1775 1
  1320 1775 1777 1
  1321 1775 1776 1
  1322 1777 1778 1
  1323 1778 1785 1
  1324 1778 1779 am
  1325 1779 1781 am
  1326 1779 1780 2
  1327 1781 1782 am
  1328 1782 1783 2
  1329 1782 1784 1
  1330 1784 1785 2
  1331 1744 1768 1
  1332 1798 1819 1
  1333 1798 1820 1
  1334 1798 1800 1
  1335 1799 1800 1
  1336 1799 1801 1
  1337 1801 1803 1
  1338 1801 1802 1
  1339 1802 1807 1
  1340 1803 1805 1
  1341 1803 1804 1
  1342 1805 1807 1
  1343 1805 1806 1
  1344 1807 1818 1
  1345 1808 1809 1
  1346 1808 1814 am
  1347 1809 1810 2
  1348 1809 1811 2
  1349 1811 1812 1
  1350 1812 1818 ar
  1351 1812 1813 ar
  1352 1813 1816 ar
  1353 1813 1814 1
  1354 1814 1815 2
  1355 1816 1817 ar
  1356 1817 1818 ar
  1357 1774 1798 1
  1358 1832 1852 1
  1359 1832 1853 1
  1360 1832 1834 1
  1361 1833 1835 1
  1362 1833 1834 1
  1363 1835 1837 1
  1364 1835 1836 1
  1365 1836 1841 1
  1366 1837 1838 1
  1367 1837 1839 1
  1368 1839 1841 1
  1369 1839 1840 1
  1370 1841 1851 1
  1371 1842 1843 ar
  1372 1842 1847 ar
  1373 1843 1844 ar
  1374 1844 1845 ar
  1375 1845 1851 ar
  1376 1845 1846 ar
  1377 1846 1849 ar
  1378 1846 1847 ar
  1379 1847 1848 1
  1380 1849 1850 ar
  1381 1850 1851 ar
  1382 1804 1832 1
  1383 1865 1884 1
  1384 1865 1867 1
  1385 1865 1883 1
  1386 1866 1868 1
  1387 1866 1867 1
  1388 1868 1869 1
  1389 1868 1870 1
  1390 1869 1874 1
  1391 1870 1871 1
  1392 1870 1872 1
  1393 1872 1874 1
  1394 1872 1873 1
  1395 1874 1875 1
  1396 1875 1882 1
  1397 1875 1876 am
  1398 1876 1878 am
  1399 1876 1877 2
  1400 1878 1879 am
  1401 1879 1880 2
  1402 1879 1881 1
  1403 1881 1882 2
  1404 1838 1865 1
  1405 1895 1914 1
  1406 1895 1897 1
  1407 1895 1913 1
  1408 1896 1898 1
  1409 1896 1897 1
  1410 1898 1899 1
  1411 1898 1900 1
  1412 1899 1904 1
  1413 1900 1901 1
  1414 1900 1902 1
  1415 1902 1904 1
  1416 1902 1903 1
  1417 1904 1905 1
  1418 1905 1912 1
  1419 1905 1906 am
  1420 1906 1908 am
  1421 1906 1907 2
  1422 1908 1909 am
  1423 1909 1910 2
  1424 1909 1911 1
  1425 1911 1912 2
  1426 1871 1895 1
  1427 1925 1944 1
  1428 1925 1927 1
  1429 1925 1943 1
  1430 1926 1928 1
  1431 1926 1927 1
  1432 1928 1929 1
  1433 1928 1930 1
  1434 1929 1934 1
  1435 1930 1931 1
  1436 1930 1932 1
  1437 1932 1934 1
  1438 1932 1933 1
  1439 1934 1935 1
  1440 1935 1942 1
  1441 1935 1936 am
  1442 1936 1938 am
  1443 1936 1937 2
  1444 1938 1939 am
  1445 1939 1940 2
  1446 1939 1941 1
  1447 1941 1942 2
  1448 1901 1925 1
  1449 1955 1976 1
  1450 1955 1977 1
  1451 1955 1957 1
  1452 1956 1957 1
  1453 1956 1958 1
  1454 1958 1960 1
  1455 1958 1959 1
  1456 1959 1964 1
  1457 1960 1962 1
  1458 1960 1961 1
  1459 1962 1964 1
  1460 1962 1963 1
  1461 1964 1975 1
  1462 1965 1966 1
  1463 1965 1971 am
  1464 1966 1967 2
  1465 1966 1968 2
  1466 1968 1969 1
  1467 1969 1975 ar
  1468 1969 1970 ar
  1469 1970 1973 ar
  1470 1970 1971 1
  1471 1971 1972 2
  1472 1973 1974 ar
  1473 1974 1975 ar
  1474 1931 1955 1
  1475 1989 2010 1
  1476 1989 2011 1
  1477 1989 1991 1
  1478 1990 1991 1
  1479 1990 1992 1
  1480 1992 1994 1
  1481 1992 1993 1
  1482 1993 1998 1
  1483 1994 1996 1
  1484 1994 1995 1
  1485 1996 1998 1
  1486 1996 1997 1
  1487 1998 2009 1
  1488 1999 2000 1
  1489 1999 2005 am
  1490 2000 2001 2
  1491 2000 2002 2
  1492 2002 2003 1
  1493 2003 2009 ar
  1494 2003 2004 ar
  1495 2004 2007 ar
  1496 2004 2005 1
  1497 2005 2006 2
  1498 2007 2008 ar
  1499 2008 2009 ar
  1500 1961 1989 1
  1501 2023 2042 1
  1502 2023 2025 1
  1503 2023 2041 1
  1504 2024 2026 1
  1505 2024 2025 1
  1506 2026 2027 1
  1507 2026 2028 1
  1508 2027 2032 1
  1509 2028 2029 1
  1510 2028 2030 1
  1511 2030 2032 1
  1512 2030 2031 1
  1513 2032 2033 1
  1514 2033 2040 1
  1515 2033 2034 am
  1516 2034 2036 am
  1517 2034 2035 2
  1518 2036 2037 am
  1519 2037 2038 2
  1520 2037 2039 1
  1521 2039 2040 2
  1522 1995 2023 1
  1523 2053 2074 1
  1524 2053 2075 1
  1525 2053 2055 1
  1526 2054 2055 1
  1527 2054 2056 1
  1528 2056 2058 1
  1529 2056 2057 1
  1530 2057 2062 1
  1531 2058 2060 1
  1532 2058 2059 1
  1533 2060 2062 1
  1534 2060 2061 1
  1535 2062 2073 1
  1536 2063 2064 1
  1537 2063 2069 am
  1538 2064 2065 2
  1539 2064 2066 2
  1540 2066 2067 1
  1541 2067 2073 ar
  1542 2067 2068 ar
  1543 2068 2071 ar
  1544 2068 2069 1
  1545 2069 2070 2
  1546 2071 2072 ar
  1547 2072 2073 ar
  1548 2029 2053 1
  1549 2087 2107 1
  1550 2087 2108 1
  1551 2087 2089 1
  1552 2088 2090 1
  1553 2088 2089 1
  1554 2090 2092 1
  1555 2090 2091 1
  1556 2091 2096 1
  1557 2092 2093 1
  1558 2092 2094 1
  1559 2094 2096 1
  1560 2094 2095 1
  1561 2096 2106 1
  1562 2097 2098 ar
  1563 2097 2102 ar
  1564 2098 2099 ar
  1565 2099 2100 ar
  1566 2100 2106 ar
  1567 2100 2101 ar
  1568 2101 2104 ar
  1569 2101 2102 ar
  1570 2102 2103 1
  1571 2104 2105 ar
  1572 2105 2106 ar
  1573 2059 2087 1
  1574 2120 2140 1
  1575 2120 2141 1
  1576 2120 2122 1
  1577 2121 2123 1
  1578 2121 2122 1
  1579 2123 2125 1
  1580 2123 2124 1
  1581 2124 2129 1
  1582 2125 2126 1
  1583 2125 2127 1
  1584 2127 2129 1
  1585 2127 2128 1
  1586 2129 2139 1
  1587 2130 2131 ar
  1588 2130 2135 ar
  1589 2131 2132 ar
  1590 2132 2133 ar
  1591 2133 2139 ar
  1592 2133 2134 ar
  1593 2134 2137 ar
  1594 2134 2135 ar
  1595 2135 2136 1
  1596 2137 2138 ar
  1597 2138 2139 ar
  1598 2093 2120 1
  1599 2153 2173 1
  1600 2153 2174 1
  1601 2153 2155 1
  1602 2154 2156 1
  1603 2154 2155 1
  1604 2156 2158 1
  1605 2156 2157 1
  1606 2157 2162 1
  1607 2158 2159 1
  1608 2158 2160 1
  1609 2160 2162 1
  1610 2160 2161 1
  1611 2162 2172 1
  1612 2163 2164 ar
  1613 2163 2168 ar
  1614 2164 2165 ar
  1615 2165 2166 ar
  1616 2166 2172 ar
  1617 2166 2167 ar
  1618 2167 2170 ar
  1619 2167 2168 ar
  1620 2168 2169 1
  1621 2170 2171 ar
  1622 2171 2172 ar
  1623 2126 2153 1
  1624 2186 2205 1
  1625 2186 2188 1
  1626 2186 2204 1
  1627 2187 2189 1
  1628 2187 2188 1
  1629 2189 2190 1
  1630 2189 2191 1
  1631 2190 2195 1
  1632 2191 2192 1
  1633 2191 2193 1
  1634 2193 2195 1
  1635 2193 2194 1
  1636 2195 2196 1
  1637 2196 2203 1
  1638 2196 2197 am
  1639 2197 2199 am
  1640 2197 2198 2
  1641 2199 2200 am
  1642 2200 2201 2
  1643 2200 2202 1
  1644 2202 2203 2
  1645 2159 2186 1
  1646 2216 2235 1
  1647 2216 2218 1
  1648 2216 2234 1
  1649 2217 2219 1
  1650 2217 2218 1
  1651 2219 2220 1
  1652 2219 2221 1
  1653 2220 2225 1
  1654 2221 2222 1
  1655 2221 2223 1
  1656 2223 2225 1
  1657 2223 2224 1
  1658 2225 2226 1
  1659 2226 2233 1
  1660 2226 2227 am
  1661 2227 2229 am
  1662 2227 2228 2
  1663 2229 2230 am
  1664 2230 2231 2
  1665 2230 2232 1
  1666 2232 2233 2
  1667 2192 2216 1
  1668 2246 2264 1
  1669 2246 2265 1
  1670 2246 2248 1
  1671 2247 2248 1
  1672 2247 2249 1
  1673 2249 2251 1
  1674 2249 2250 1
  1675 2250 2255 1
  1676 2251 2253 1
  1677 2251 2252 1
  1678 2253 2254 1
  1679 2253 2255 1
  1680 2255 2256 1
  1681 2256 2257 am
  1682 2256 2263 1
  1683 2257 2259 1
  1684 2257 2258 2
  1685 2259 2260 2
  1686 2260 2262 2
  1687 2260 2261 2
  1688 2262 2263 2
  1689 2222 2246 1
  1690 2277 2295 1
  1691 2277 2296 1
  1692 2277 2279 1
  1693 2278 2279 1
  1694 2278 2280 1
  1695 2280 2282 1
  1696 2280 2281 1
  1697 2281 2286 1
  1698 2282 2284 1
  1699 2282 2283 1
  1700 2284 2285 1
  1701 2284 2286 1
  1702 2286 2287 1
  1703 2287 2288 am
  1704 2287 2294 1
  1705 2288 2290 1
  1706 2288 2289 2
  1707 2290 2291 2
  1708 2291 2293 2
  1709 2291 2292 2
  1710 2293 2294 2
  1711 2252 2277 1
  1712 2308 2328 1
  1713 2308 2329 1
  1714 2308 2310 1
  1715 2309 2311 1
  1716 2309 2310 1
  1717 2311 2313 1
  1718 2311 2312 1
  1719 2312 2317 1
  1720 2313 2314 1
  1721 2313 2315 1
  1722 2315 2317 1
  1723 2315 2316 1
  1724 2317 2327 1
  1725 2318 2319 ar
  1726 2318 2323 ar
  1727 2319 2320 ar
  1728 2320 2321 ar
  1729 2321 2327 ar
  1730 2321 2322 ar
  1731 2322 2325 ar
  1732 2322 2323 ar
  1733 2323 2324 1
  1734 2325 2326 ar
  1735 2326 2327 ar
  1736 2283 2308 1
  1737 2341 2361 1
  1738 2341 2362 1
  1739 2341 2343 1
  1740 2342 2344 1
  1741 2342 2343 1
  1742 2344 2346 1
  1743 2344 2345 1
  1744 2345 2350 1
  1745 2346 2347 1
  1746 2346 2348 1
  1747 2348 2350 1
  1748 2348 2349 1
  1749 2350 2360 1
  1750 2351 2352 ar
  1751 2351 2356 ar
  1752 2352 2353 ar
  1753 2353 2354 ar
  1754 2354 2360 ar
  1755 2354 2355 ar
  1756 2355 2358 ar
  1757 2355 2356 ar
  1758 2356 2357 1
  1759 2358 2359 ar
  1760 2359 2360 ar
  1761 2314 2341 1
  1762 2374 2394 1
  1763 2374 2395 1
  1764 2374 2376 1
  1765 2375 2377 1
  1766 2375 2376 1
  1767 2377 2379 1
  1768 2377 2378 1
  1769 2378 2383 1
  1770 2379 2380 1
  1771 2379 2381 1
  1772 2381 2383 1
  1773 2381 2382 1
  1774 2383 2393 1
  1775 2384 2385 ar
  1776 2384 2389 ar
  1777 2385 2386 ar
  1778 2386 2387 ar
  1779 2387 2393 ar
  1780 2387 2388 ar
  1781 2388 2391 ar
  1782 2388 2389 ar
  1783 2389 2390 1
  1784 2391 2392 ar
  1785 2392 2393 ar
  1786 2347 2374 1
  1787 2407 2427 1
  1788 2407 2428 1
  1789 2407 2409 1
  1790 2408 2410 1
  1791 2408 2409 1
  1792 2410 2412 1
  1793 2410 2411 1
  1794 2411 2416 1
  1795 2412 2413 1
  1796 2412 2414 1
  1797 2414 2416 1
  1798 2414 2415 1
  1799 2416 2426 1
  1800 2417 2418 ar
  1801 2417 2422 ar
  1802 2418 2419 ar
  1803 2419 2420 ar
  1804 2420 2426 ar
  1805 2420 2421 ar
  1806 2421 2424 ar
  1807 2421 2422 ar
  1808 2422 2423 1
  1809 2424 2425 ar
  1810 2425 2426 ar
  1811 2380 2407 1
  1812 2440 2458 1
  1813 2440 2459 1
  1814 2440 2442 1
  1815 2441 2442 1
  1816 2441 2443 1
  1817 2443 2445 1
  1818 2443 2444 1
  1819 2444 2449 1
  1820 2445 2447 1
  1821 2445 2446 1
  1822 2447 2448 1
  1823 2447 2449 1
  1824 2449 2450 1
  1825 2450 2451 am
  1826 2450 2457 1
  1827 2451 2453 1
  1828 2451 2452 2
  1829 2453 2454 2
  1830 2454 2456 2
  1831 2454 2455 2
  1832 2456 2457 2
  1833 2413 2440 1
  1834 2471 2489 1
  1835 2471 2490 1
  1836 2471 2473 1
  1837 2472 2473 1
  1838 2472 2474 1
  1839 2474 2476 1
  1840 2474 2475 1
  1841 2475 2480 1
  1842 2476 2478 1
  1843 2476 2477 1
  1844 2478 2479 1
  1845 2478 2480 1
  1846 2480 2481 1
  1847 2481 2482 am
  1848 2481 2488 1
  1849 2482 2484 1
  1850 2482 2483 2
  1851 2484 2485 2
  1852 2485 2487 2
  1853 2485 2486 2
  1854 2487 2488 2
  1855 2446 2471 1
  1856 2502 2523 1
  1857 2502 2524 1
  1858 2502 2504 1
  1859 2503 2504 1
  1860 2503 2505 1
  1861 2505 2507 1
  1862 2505 2506 1
  1863 2506 2511 1
  1864 2507 2509 1
  1865 2507 2508 1
  1866 2509 2511 1
  1867 2509 2510 1
  1868 2511 2522 1
  1869 2512 2513 1
  1870 2512 2518 am
  1871 2513 2514 2
  1872 2513 2515 2
  1873 2515 2516 1
  1874 2516 2522 ar
  1875 2516 2517 ar
  1876 2517 2520 ar
  1877 2517 2518 1
  1878 2518 2519 2
  1879 2520 2521 ar
  1880 2521 2522 ar
  1881 2477 2502 1
  1882 2536 2556 1
  1883 2536 2557 1
  1884 2536 2538 1
  1885 2537 2539 1
  1886 2537 2538 1
  1887 2539 2541 1
  1888 2539 2540 1
  1889 2540 2545 1
  1890 2541 2542 1
  1891 2541 2543 1
  1892 2543 2545 1
  1893 2543 2544 1
  1894 2545 2555 1
  1895 2546 2547 ar
  1896 2546 2551 ar
  1897 2547 2548 ar
  1898 2548 2549 ar
  1899 2549 2555 ar
  1900 2549 2550 ar
  1901 2550 2553 ar
  1902 2550 2551 ar
  1903 2551 2552 1
  1904 2553 2554 ar
  1905 2554 2555 ar
  1906 2508 2536 1
  1907 2569 2587 1
  1908 2569 2588 1
  1909 2569 2571 1
  1910 2570 2571 1
  1911 2570 2572 1
  1912 2572 2574 1
  1913 2572 2573 1
  1914 2573 2578 1
  1915 2574 2576 1
  1916 2574 2575 1
  1917 2576 2577 1
  1918 2576 2578 1
  1919 2578 2579 1
  1920 2579 2580 am
  1921 2579 2586 1
  1922 2580 2582 1
  1923 2580 2581 2
  1924 2582 2583 2
  1925 2583 2585 2
  1926 2583 2584 2
  1927 2585 2586 2
  1928 2542 2569 1
  1929 2600 2620 1
  1930 2600 2621 1
  1931 2600 2602 1
  1932 2601 2603 1
  1933 2601 2602 1
  1934 2603 2605 1
  1935 2603 2604 1
  1936 2604 2609 1
  1937 2605 2606 1
  1938 2605 2607 1
  1939 2607 2609 1
  1940 2607 2608 1
  1941 2609 2619 1
  1942 2610 2611 ar
  1943 2610 2615 ar
  1944 2611 2612 ar
  1945 2612 2613 ar
  1946 2613 2619 ar
  1947 2613 2614 ar
  1948 2614 2617 ar
  1949 2614 2615 ar
  1950 2615 2616 1
  1951 2617 2618 ar
  1952 2618 2619 ar
  1953 2575 2600 1
  1954 2633 2654 1
  1955 2633 2655 1
  1956 2633 2635 1
  1957 2634 2635 1
  1958 2634 2636 1
  1959 2636 2638 1
  1960 2636 2637 1
  1961 2637 2642 1
  1962 2638 2640 1
  1963 2638 2639 1
  1964 2640 2642 1
  1965 2640 2641 1
  1966 2642 2653 1
  1967 2643 2644 1
  1968 2643 2649 am
  1969 2644 2645 2
  1970 2644 2646 2
  1971 2646 2647 1
  1972 2647 2653 ar
  1973 2647 2648 ar
  1974 2648 2651 ar
  1975 2648 2649 1
  1976 2649 2650 2
  1977 2651 2652 ar
  1978 2652 2653 ar
  1979 2606 2633 1
  1980 2667 2686 1
  1981 2667 2669 1
  1982 2667 2685 1
  1983 2668 2670 1
  1984 2668 2669 1
  1985 2670 2671 1
  1986 2670 2672 1
  1987 2671 2676 1
  1988 2672 2673 1
  1989 2672 2674 1
  1990 2674 2676 1
  1991 2674 2675 1
  1992 2676 2677 1
  1993 2677 2684 1
  1994 2677 2678 am
  1995 2678 2680 am
  1996 2678 2679 2
  1997 2680 2681 am
  1998 2681 2682 2
  1999 2681 2683 1
  2000 2683 2684 2
  2001 2639 2667 1
  2002 2697 2717 1
  2003 2697 2718 1
  2004 2697 2699 1
  2005 2698 2700 1
  2006 2698 2699 1
  2007 2700 2702 1
  2008 2700 2701 1
  2009 2701 2706 1
  2010 2702 2703 1
  2011 2702 2704 1
  2012 2704 2706 1
  2013 2704 2705 1
  2014 2706 2716 1
  2015 2707 2708 ar
  2016 2707 2712 ar
  2017 2708 2709 ar
  2018 2709 2710 ar
  2019 2710 2716 ar
  2020 2710 2711 ar
  2021 2711 2714 ar
  2022 2711 2712 ar
  2023 2712 2713 1
  2024 2714 2715 ar
  2025 2715 2716 ar
  2026 2673 2697 1
  2027 2730 2751 1
  2028 2730 2752 1
  2029 2730 2732 1
  2030 2731 2732 1
  2031 2731 2733 1
  2032 2733 2735 1
  2033 2733 2734 1
  2034 2734 2739 1
  2035 2735 2737 1
  2036 2735 2736 1
  2037 2737 2739 1
  2038 2737 2738 1
  2039 2739 2750 1
  2040 2740 2741 1
  2041 2740 2746 am
  2042 2741 2742 2
  2043 2741 2743 2
  2044 2743 2744 1
  2045 2744 2750 ar
  2046 2744 2745 ar
  2047 2745 2748 ar
  2048 2745 2746 1
  2049 2746 2747 2
  2050 2748 2749 ar
  2051 2749 2750 ar
  2052 2703 2730 1
  2053 2764 2784 1
  2054 2764 2785 1
  2055 2764 2766 1
  2056 2765 2767 1
  2057 2765 2766 1
  2058 2767 2769 1
  2059 2767 2768 1
  2060 2768 2773 1
  2061 2769 2770 1
  2062 2769 2771 1
  2063 2771 2773 1
  2064 2771 2772 1
  2065 2773 2783 1
  2066 2774 2775 ar
  2067 2774 2779 ar
  2068 2775 2776 ar
  2069 2776 2777 ar
  2070 2777 2783 ar
  2071 2777 2778 ar
  2072 2778 2781 ar
  2073 2778 2779 ar
  2074 2779 2780 1
  2075 2781 2782 ar
  2076 2782 2783 ar
  2077 2736 2764 1
  2078 2797 2818 1
  2079 2797 2819 1
  2080 2797 2799 1
  2081 2798 2799 1
  2082 2798 2800 1
  2083 2800 2802 1
  2084 2800 2801 1
  2085 2801 2806 1
  2086 2802 2804 1
  2087 2802 2803 1
  2088 2804 2806 1
  2089 2804 2805 1
  2090 2806 2817 1
  2091 2807 2808 1
  2092 2807 2813 am
  2093 2808 2809 2
  2094 2808 2810 2
  2095 2810 2811 1
  2096 2811 2817 ar
  2097 2811 2812 ar
  2098 2812 2815 ar
  2099 2812 2813 1
  2100 2813 2814 2
  2101 2815 2816 ar
  2102 2816 2817 ar
  2103 2770 2797 1
  2104 2831 2850 1
  2105 2831 2833 1
  2106 2831 2849 1
  2107 2832 2834 1
  2108 2832 2833 1
  2109 2834 2835 1
  2110 2834 2836 1
  2111 2835 2840 1
  2112 2836 2837 1
  2113 2836 2838 1
  2114 2838 2840 1
  2115 2838 2839 1
  2116 2840 2841 1
  2117 2841 2848 1
  2118 2841 2842 am
  2119 2842 2844 am
  2120 2842 2843 2
  2121 2844 2845 am
  2122 2845 2846 2
  2123 2845 2847 1
  2124 2847 2848 2
  2125 2803 2831 1
  2126 2861 2879 1
  2127 2861 2880 1
  2128 2861 2863 1
  2129 2862 2863 1
  2130 2862 2864 1
  2131 2864 2866 1
  2132 2864 2865 1
  2133 2865 2870 1
  2134 2866 2868 1
  2135 2866 2867 1
  2136 2868 2869 1
  2137 2868 2870 1
  2138 2870 2871 1
  2139 2871 2872 am
  2140 2871 2878 1
  2141 2872 2874 1
  2142 2872 2873 2
  2143 2874 2875 2
  2144 2875 2877 2
  2145 2875 2876 2
  2146 2877 2878 2
  2147 2837 2861 1
  2148 2892 2911 1
  2149 2892 2894 1
  2150 2892 2910 1
  2151 2893 2895 1
  2152 2893 2894 1
  2153 2895 2896 1
  2154 2895 2897 1
  2155 2896 2901 1
  2156 2897 2898 1
  2157 2897 2899 1
  2158 2899 2901 1
  2159 2899 2900 1
  2160 2901 2902 1
  2161 2902 2909 1
  2162 2902 2903 am
  2163 2903 2905 am
  2164 2903 2904 2
  2165 2905 2906 am
  2166 2906 2907 2
  2167 2906 2908 1
  2168 2908 2909 2
  2169 2867 2892 1
  2170 2922 2943 1
  2171 2922 2944 1
  2172 2922 2924 1
  2173 2923 2924 1
  2174 2923 2925 1
  2175 2925 2927 1
  2176 2925 2926 1
  2177 2926 2931 1
  2178 2927 2929 1
  2179 2927 2928 1
  2180 2929 2931 1
  2181 2929 2930 1
  2182 2931 2942 1
  2183 2932 2933 1
  2184 2932 2938 am
  2185 2933 2934 2
  2186 2933 2935 2
  2187 2935 2936 1
  2188 2936 2942 ar
  2189 2936 2937 ar
  2190 2937 2940 ar
  2191 2937 2938 1
  2192 2938 2939 2
  2193 2940 2941 ar
  2194 2941 2942 ar
  2195 2898 2922 1
  2196 2956 2977 1
  2197 2956 2978 1
  2198 2956 2958 1
  2199 2957 2958 1
  2200 2957 2959 1
  2201 2959 2961 1
  2202 2959 2960 1
  2203 2960 2965 1
  2204 2961 2963 1
  2205 2961 2962 1
  2206 2963 2965 1
  2207 2963 2964 1
  2208 2965 2976 1
  2209 2966 2967 1
  2210 2966 2972 am
  2211 2967 2968 2
  2212 2967 2969 2
  2213 2969 2970 1
  2214 2970 2976 ar
  2215 2970 2971 ar
  2216 2971 2974 ar
  2217 2971 2972 1
  2218 2972 2973 2
  2219 2974 2975 ar
  2220 2975 2976 ar
  2221 2928 2956 1
  2222 2990 3010 1
  2223 2990 3011 1
  2224 2990 2992 1
  2225 2991 2993 1
  2226 2991 2992 1
  2227 2993 2995 1
  2228 2993 2994 1
  2229 2994 2999 1
  2230 2995 2996 1
  2231 2995 2997 1
  2232 2997 2999 1
  2233 2997 2998 1
  2234 2999 3009 1
  2235 3000 3001 ar
  2236 3000 3005 ar
  2237 3001 3002 ar
  2238 3002 3003 ar
  2239 3003 3009 ar
  2240 3003 3004 ar
  2241 3004 3007 ar
  2242 3004 3005 ar
  2243 3005 3006 1
  2244 3007 3008 ar
  2245 3008 3009 ar
  2246 2962 2990 1
  2247 3023 3042 1
  2248 3023 3025 1
  2249 3023 3041 1
  2250 3024 3026 1
  2251 3024 3025 1
  2252 3026 3027 1
  2253 3026 3028 1
  2254 3027 3032 1
  2255 3028 3029 1
  2256 3028 3030 1
  2257 3030 3032 1
  2258 3030 3031 1
  2259 3032 3033 1
  2260 3033 3040 1
  2261 3033 3034 am
  2262 3034 3036 am
  2263 3034 3035 2
  2264 3036 3037 am
  2265 3037 3038 2
  2266 3037 3039 1
  2267 3039 3040 2
  2268 2996 3023 1
  2269 3053 3074 1
  2270 3053 3075 1
  2271 3053 3055 1
  2272 3054 3055 1
  2273 3054 3056 1
  2274 3056 3058 1
  2275 3056 3057 1
  2276 3057 3062 1
  2277 3058 3060 1
  2278 3058 3059 1
  2279 3060 3062 1
  2280 3060 3061 1
  2281 3062 3073 1
  2282 3063 3064 1
  2283 3063 3069 am
  2284 3064 3065 2
  2285 3064 3066 2
  2286 3066 3067 1
  2287 3067 3073 ar
  2288 3067 3068 ar
  2289 3068 3071 ar
  2290 3068 3069 1
  2291 3069 3070 2
  2292 3071 3072 ar
  2293 3072 3073 ar
  2294 3029 3053 1
  2295 3087 3107 1
  2296 3087 3108 1
  2297 3087 3089 1
  2298 3088 3090 1
  2299 3088 3089 1
  2300 3090 3092 1
  2301 3090 3091 1
  2302 3091 3096 1
  2303 3092 3093 1
  2304 3092 3094 1
  2305 3094 3096 1
  2306 3094 3095 1
  2307 3096 3106 1
  2308 3097 3098 ar
  2309 3097 3102 ar
  2310 3098 3099 ar
  2311 3099 3100 ar
  2312 3100 3106 ar
  2313 3100 3101 ar
  2314 3101 3104 ar
  2315 3101 3102 ar
  2316 3102 3103 1
  2317 3104 3105 ar
  2318 3105 3106 ar
  2319 3059 3087 1
  2320 3120 3141 1
  2321 3120 3142 1
  2322 3120 3122 1
  2323 3121 3122 1
  2324 3121 3123 1
  2325 3123 3125 1
  2326 3123 3124 1
  2327 3124 3129 1
  2328 3125 3127 1
  2329 3125 3126 1
  2330 3127 3129 1
  2331 3127 3128 1
  2332 3129 3140 1
  2333 3130 3131 1
  2334 3130 3136 am
  2335 3131 3132 2
  2336 3131 3133 2
  2337 3133 3134 1
  2338 3134 3140 ar
  2339 3134 3135 ar
  2340 3135 3138 ar
  2341 3135 3136 1
  2342 3136 3137 2
  2343 3138 3139 ar
  2344 3139 3140 ar
  2345 3093 3120 1
  2346 3154 3174 1
  2347 3154 3175 1
  2348 3154 3156 1
  2349 3155 3157 1
  2350 3155 3156 1
  2351 3157 3159 1
  2352 3157 3158 1
  2353 3158 3163 1
  2354 3159 3160 1
  2355 3159 3161 1
  2356 3161 3163 1
  2357 3161 3162 1
  2358 3163 3173 1
  2359 3164 3165 ar
  2360 3164 3169 ar
  2361 3165 3166 ar
  2362 3166 3167 ar
  2363 3167 3173 ar
  2364 3167 3168 ar
  2365 3168 3171 ar
  2366 3168 3169 ar
  2367 3169 3170 1
  2368 3171 3172 ar
  2369 3172 3173 ar
  2370 3126 3154 1
  2371 3187 3208 1
  2372 3187 3209 1
  2373 3187 3189 1
  2374 3188 3189 1
  2375 3188 3190 1
  2376 3190 3192 1
  2377 3190 3191 1
  2378 3191 3196 1
  2379 3192 3194 1
  2380 3192 3193 1
  2381 3194 3196 1
  2382 3194 3195 1
  2383 3196 3207 1
  2384 3197 3198 1
  2385 3197 3203 am
  2386 3198 3199 2
  2387 3198 3200 2
  2388 3200 3201 1
  2389 3201 3207 ar
  2390 3201 3202 ar
  2391 3202 3205 ar
  2392 3202 3203 1
  2393 3203 3204 2
  2394 3205 3206 ar
  2395 3206 3207 ar
  2396 3160 3187 1
  2397 3221 3241 1
  2398 3221 3242 1
  2399 3221 3223 1
  2400 3222 3224 1
  2401 3222 3223 1
  2402 3224 3226 1
  2403 3224 3225 1
  2404 3225 3230 1
  2405 3226 3227 1
  2406 3226 3228 1
  2407 3228 3230 1
  2408 3228 3229 1
  2409 3230 3240 1
  2410 3231 3232 ar
  2411 3231 3236 ar
  2412 3232 3233 ar
  2413 3233 3234 ar
  2414 3234 3240 ar
  2415 3234 3235 ar
  2416 3235 3238 ar
  2417 3235 3236 ar
  2418 3236 3237 1
  2419 3238 3239 ar
  2420 3239 3240 ar
  2421 3193 3221 1
  2422 3254 3274 1
  2423 3254 3275 1
  2424 3254 3256 1
  2425 3255 3257 1
  2426 3255 3256 1
  2427 3257 3259 1
  2428 3257 3258 1
  2429 3258 3263 1
  2430 3259 3260 1
  2431 3259 3261 1
  2432 3261 3263 1
  2433 3261 3262 1
  2434 3263 3273 1
  2435 3264 3265 ar
  2436 3264 3269 ar
  2437 3265 3266 ar
  2438 3266 3267 ar
  2439 3267 3273 ar
  2440 3267 3268 ar
  2441 3268 3271 ar
  2442 3268 3269 ar
  2443 3269 3270 1
  2444 3271 3272 ar
  2445 3272 3273 ar
  2446 3227 3254 1
  2447 3287 3308 1
  2448 3287 3309 1
  2449 3287 3289 1
  2450 3288 3289 1
  2451 3288 3290 1
  2452 3290 3292 1
  2453 3290 3291 1
  2454 3291 3296 1
  2455 3292 3294 1
  2456 3292 3293 1
  2457 3294 3296 1
  2458 3294 3295 1
  2459 3296 3307 1
  2460 3297 3298 1
  2461 3297 3303 am
  2462 3298 3299 2
  2463 3298 3300 2
  2464 3300 3301 1
  2465 3301 3307 ar
  2466 3301 3302 ar
  2467 3302 3305 ar
  2468 3302 3303 1
  2469 3303 3304 2
  2470 3305 3306 ar
  2471 3306 3307 ar
  2472 3260 3287 1
  2473 3321 3341 1
  2474 3321 3342 1
  2475 3321 3323 1
  2476 3322 3324 1
  2477 3322 3323 1
  2478 3324 3326 1
  2479 3324 3325 1
  2480 3325 3330 1
  2481 3326 3327 1
  2482 3326 3328 1
  2483 3328 3330 1
  2484 3328 3329 1
  2485 3330 3340 1
  2486 3331 3332 ar
  2487 3331 3336 ar
  2488 3332 3333 ar
  2489 3333 3334 ar
  2490 3334 3340 ar
  2491 3334 3335 ar
  2492 3335 3338 ar
  2493 3335 3336 ar
  2494 3336 3337 1
  2495 3338 3339 ar
  2496 3339 3340 ar
  2497 3293 3321 1
  2498 3354 3373 1
  2499 3354 3356 1
  2500 3354 3372 1
  2501 3355 3357 1
  2502 3355 3356 1
  2503 3357 3358 1
  2504 3357 3359 1
  2505 3358 3363 1
  2506 3359 3360 1
  2507 3359 3361 1
  2508 3361 3363 1
  2509 3361 3362 1
  2510 3363 3364 1
  2511 3364 3371 1
  2512 3364 3365 am
  2513 3365 3367 am
  2514 3365 3366 2
  2515 3367 3368 am
  2516 3368 3369 2
  2517 3368 3370 1
  2518 3370 3371 2
  2519 3327 3354 1
  2520 3384 3403 1
  2521 3384 3386 1
  2522 3384 3402 1
  2523 3385 3387 1
  2524 3385 3386 1
  2525 3387 3388 1
  2526 3387 3389 1
  2527 3388 3393 1
  2528 3389 3390 1
  2529 3389 3391 1
  2530 3391 3393 1
  2531 3391 3392 1
  2532 3393 3394 1
  2533 3394 3401 1
  2534 3394 3395 am
  2535 3395 3397 am
  2536 3395 3396 2
  2537 3397 3398 am
  2538 3398 3399 2
  2539 3398 3400 1
  2540 3400 3401 2
  2541 3360 3384 1
  2542 3414 3432 1
  2543 3414 3433 1
  2544 3414 3416 1
  2545 3415 3416 1
  2546 3415 3417 1
  2547 3417 3419 1
  2548 3417 3418 1
  2549 3418 3423 1
  2550 3419 3421 1
  2551 3419 3420 1
  2552 3421 3422 1
  2553 3421 3423 1
  2554 3423 3424 1
  2555 3424 3425 am
  2556 3424 3431 1
  2557 3425 3427 1
  2558 3425 3426 2
  2559 3427 3428 2
  2560 3428 3430 2
  2561 3428 3429 2
  2562 3430 3431 2
  2563 3390 3414 1
  2564 3446 3447 1
  2565 3446 3448 1
  2566 3448 3450 1
  2567 3448 3449 1
  2568 3449 3454 1
  2569 3450 3452 1
  2570 3450 3451 1
  2571 3452 3454 1
  2572 3452 3453 1
  2573 3454 3465 1
  2574 3455 3461 am
  2575 3455 3456 1
  2576 3456 3458 2
  2577 3456 3457 2
  2578 3458 3459 1
  2579 3459 3465 ar
  2580 3459 3460 ar
  2581 3460 3463 ar
  2582 3460 3461 1
  2583 3461 3462 2
  2584 3463 3464 ar
  2585 3464 3465 ar
  2586 3445 3447 1
  2587 3445 3466 1
  2588 3445 3467 1
  2589 3420 3445 1
  2590   21    1 1
  2591   22    1 1
  2592   23    3 1
  2593   24    5 1
  2594   25    7 1
  2595   26    9 1
  2596   27   10 1
  2597   28   19 1
  2598   55   34 1
  2599   56   34 1
  2600   57   36 1
  2601   58   38 1
  2602   59   40 1
  2603   60   42 1
  2604   61   44 1
  2605   62   51 1
  2606   86   67 1
  2607   87   67 1
  2608   88   69 1
  2609   89   71 1
  2610   90   73 1
  2611   91   75 1
  2612   92   79 1
  2613   93   82 1
  2614   94   83 1
  2615  116   97 1
  2616  117   97 1
  2617  118   99 1
  2618  119  101 1
  2619  120  103 1
  2620  121  105 1
  2621  122  112 1
  2622  123  113 1
  2623  147  128 1
  2624  148  128 1
  2625  149  130 1
  2626  150  132 1
  2627  151  134 1
  2628  152  136 1
  2629  153  140 1
  2630  154  143 1
  2631  155  144 1
  2632  177  158 1
  2633  178  158 1
  2634  179  160 1
  2635  180  162 1
  2636  181  164 1
  2637  182  166 1
  2638  183  170 1
  2639  184  173 1
  2640  185  174 1
  2641  207  188 1
  2642  208  188 1
  2643  209  190 1
  2644  210  192 1
  2645  211  194 1
  2646  212  196 1
  2647  213  203 1
  2648  214  204 1
  2649  241  219 1
  2650  242  219 1
  2651  243  221 1
  2652  244  223 1
  2653  245  225 1
  2654  246  227 1
  2655  247  228 1
  2656  248  237 1
  2657  275  253 1
  2658  276  253 1
  2659  277  255 1
  2660  278  257 1
  2661  279  259 1
  2662  280  261 1
  2663  281  262 1
  2664  282  271 1
  2665  309  287 1
  2666  310  287 1
  2667  311  289 1
  2668  312  291 1
  2669  313  293 1
  2670  314  295 1
  2671  315  296 1
  2672  316  305 1
  2673  343  321 1
  2674  344  321 1
  2675  345  323 1
  2676  346  325 1
  2677  347  327 1
  2678  348  329 1
  2679  349  330 1
  2680  350  339 1
  2681  374  355 1
  2682  375  355 1
  2683  376  357 1
  2684  377  359 1
  2685  378  361 1
  2686  379  363 1
  2687  380  370 1
  2688  381  371 1
  2689  407  386 1
  2690  408  386 1
  2691  409  388 1
  2692  410  390 1
  2693  411  392 1
  2694  412  394 1
  2695  413  396 1
  2696  414  403 1
  2697  441  419 1
  2698  442  419 1
  2699  443  421 1
  2700  444  423 1
  2701  445  425 1
  2702  446  427 1
  2703  447  428 1
  2704  448  437 1
  2705  475  453 1
  2706  476  453 1
  2707  477  455 1
  2708  478  457 1
  2709  479  459 1
  2710  480  461 1
  2711  481  462 1
  2712  482  471 1
  2713  509  487 1
  2714  510  487 1
  2715  511  489 1
  2716  512  491 1
  2717  513  493 1
  2718  514  495 1
  2719  515  496 1
  2720  516  505 1
  2721  540  521 1
  2722  541  521 1
  2723  542  523 1
  2724  543  525 1
  2725  544  527 1
  2726  545  529 1
  2727  546  533 1
  2728  547  536 1
  2729  548  537 1
  2730  573  551 1
  2731  574  551 1
  2732  575  553 1
  2733  576  555 1
  2734  577  557 1
  2735  578  559 1
  2736  579  560 1
  2737  580  569 1
  2738  606  585 1
  2739  607  585 1
  2740  608  587 1
  2741  609  589 1
  2742  610  591 1
  2743  611  593 1
  2744  612  595 1
  2745  613  602 1
  2746  639  618 1
  2747  640  618 1
  2748  641  620 1
  2749  642  622 1
  2750  643  624 1
  2751  644  626 1
  2752  645  628 1
  2753  646  635 1
  2754  672  651 1
  2755  673  651 1
  2756  674  653 1
  2757  675  655 1
  2758  676  657 1
  2759  677  659 1
  2760  678  661 1
  2761  679  668 1
  2762  703  684 1
  2763  704  684 1
  2764  705  686 1
  2765  706  688 1
  2766  707  690 1
  2767  708  692 1
  2768  709  696 1
  2769  710  699 1
  2770  711  700 1
  2771  733  714 1
  2772  734  714 1
  2773  735  716 1
  2774  736  718 1
  2775  737  720 1
  2776  738  722 1
  2777  739  726 1
  2778  740  729 1
  2779  741  730 1
  2780  763  744 1
  2781  764  744 1
  2782  765  746 1
  2783  766  748 1
  2784  767  750 1
  2785  768  752 1
  2786  769  759 1
  2787  770  760 1
  2788  794  775 1
  2789  795  775 1
  2790  796  777 1
  2791  797  779 1
  2792  798  781 1
  2793  799  783 1
  2794  800  790 1
  2795  801  791 1
  2796  825  806 1
  2797  826  806 1
  2798  827  808 1
  2799  828  810 1
  2800  829  812 1
  2801  830  814 1
  2802  831  821 1
  2803  832  822 1
  2804  859  837 1
  2805  860  837 1
  2806  861  839 1
  2807  862  841 1
  2808  863  843 1
  2809  864  845 1
  2810  865  846 1
  2811  866  855 1
  2812  892  871 1
  2813  893  871 1
  2814  894  873 1
  2815  895  875 1
  2816  896  877 1
  2817  897  879 1
  2818  898  881 1
  2819  899  888 1
  2820  923  904 1
  2821  924  904 1
  2822  925  906 1
  2823  926  908 1
  2824  927  910 1
  2825  928  912 1
  2826  929  919 1
  2827  930  920 1
  2828  954  935 1
  2829  955  935 1
  2830  956  937 1
  2831  957  939 1
  2832  958  941 1
  2833  959  943 1
  2834  960  950 1
  2835  961  951 1
  2836  988  966 1
  2837  989  966 1
  2838  990  968 1
  2839  991  970 1
  2840  992  972 1
  2841  993  974 1
  2842  994  975 1
  2843  995  984 1
  2844 1022 1000 1
  2845 1023 1000 1
  2846 1024 1002 1
  2847 1025 1004 1
  2848 1026 1006 1
  2849 1027 1008 1
  2850 1028 1009 1
  2851 1029 1018 1
  2852 1053 1034 1
  2853 1054 1034 1
  2854 1055 1036 1
  2855 1056 1038 1
  2856 1057 1040 1
  2857 1058 1042 1
  2858 1059 1046 1
  2859 1060 1049 1
  2860 1061 1050 1
  2861 1086 1064 1
  2862 1087 1064 1
  2863 1088 1066 1
  2864 1089 1068 1
  2865 1090 1070 1
  2866 1091 1072 1
  2867 1092 1073 1
  2868 1093 1082 1
  2869 1120 1098 1
  2870 1121 1098 1
  2871 1122 1100 1
  2872 1123 1102 1
  2873 1124 1104 1
  2874 1125 1106 1
  2875 1126 1107 1
  2876 1127 1116 1
  2877 1151 1132 1
  2878 1152 1132 1
  2879 1153 1134 1
  2880 1154 1136 1
  2881 1155 1138 1
  2882 1156 1140 1
  2883 1157 1144 1
  2884 1158 1147 1
  2885 1159 1148 1
  2886 1183 1162 1
  2887 1184 1162 1
  2888 1185 1164 1
  2889 1186 1166 1
  2890 1187 1168 1
  2891 1188 1170 1
  2892 1189 1172 1
  2893 1190 1179 1
  2894 1214 1195 1
  2895 1215 1195 1
  2896 1216 1197 1
  2897 1217 1199 1
  2898 1218 1201 1
  2899 1219 1203 1
  2900 1220 1207 1
  2901 1221 1210 1
  2902 1222 1211 1
  2903 1246 1225 1
  2904 1247 1225 1
  2905 1248 1227 1
  2906 1249 1229 1
  2907 1250 1231 1
  2908 1251 1233 1
  2909 1252 1235 1
  2910 1253 1242 1
  2911 1280 1258 1
  2912 1281 1258 1
  2913 1282 1260 1
  2914 1283 1262 1
  2915 1284 1264 1
  2916 1285 1266 1
  2917 1286 1267 1
  2918 1287 1276 1
  2919 1311 1292 1
  2920 1312 1292 1
  2921 1313 1294 1
  2922 1314 1296 1
  2923 1315 1298 1
  2924 1316 1300 1
  2925 1317 1304 1
  2926 1318 1307 1
  2927 1319 1308 1
  2928 1341 1322 1
  2929 1342 1322 1
  2930 1343 1324 1
  2931 1344 1326 1
  2932 1345 1328 1
  2933 1346 1330 1
  2934 1347 1337 1
  2935 1348 1338 1
  2936 1372 1353 1
  2937 1373 1353 1
  2938 1374 1355 1
  2939 1375 1357 1
  2940 1376 1359 1
  2941 1377 1361 1
  2942 1378 1368 1
  2943 1379 1369 1
  2944 1405 1384 1
  2945 1406 1384 1
  2946 1407 1386 1
  2947 1408 1388 1
  2948 1409 1390 1
  2949 1410 1392 1
  2950 1411 1394 1
  2951 1412 1401 1
  2952 1436 1417 1
  2953 1437 1417 1
  2954 1438 1419 1
  2955 1439 1421 1
  2956 1440 1423 1
  2957 1441 1425 1
  2958 1442 1432 1
  2959 1443 1433 1
  2960 1470 1448 1
  2961 1471 1448 1
  2962 1472 1450 1
  2963 1473 1452 1
  2964 1474 1454 1
  2965 1475 1456 1
  2966 1476 1457 1
  2967 1477 1466 1
  2968 1503 1482 1
  2969 1504 1482 1
  2970 1505 1484 1
  2971 1506 1486 1
  2972 1507 1488 1
  2973 1508 1490 1
  2974 1509 1492 1
  2975 1510 1499 1
  2976 1536 1515 1
  2977 1537 1515 1
  2978 1538 1517 1
  2979 1539 1519 1
  2980 1540 1521 1
  2981 1541 1523 1
  2982 1542 1525 1
  2983 1543 1532 1
  2984 1567 1548 1
  2985 1568 1548 1
  2986 1569 1550 1
  2987 1570 1552 1
  2988 1571 1554 1
  2989 1572 1556 1
  2990 1573 1560 1
  2991 1574 1563 1
  2992 1575 1564 1
  2993 1597 1578 1
  2994 1598 1578 1
  2995 1599 1580 1
  2996 1600 1582 1
  2997 1601 1584 1
  2998 1602 1586 1
  2999 1603 1593 1
  3000 1604 1594 1
  3001 1628 1609 1
  3002 1629 1609 1
  3003 1630 1611 1
  3004 1631 1613 1
  3005 1632 1615 1
  3006 1633 1617 1
  3007 1634 1624 1
  3008 1635 1625 1
  3009 1661 1640 1
  3010 1662 1640 1
  3011 1663 1642 1
  3012 1664 1644 1
  3013 1665 1646 1
  3014 1666 1648 1
  3015 1667 1650 1
  3016 1668 1657 1
  3017 1693 1673 1
  3018 1694 1673 1
  3019 1695 1675 1
  3020 1696 1677 1
  3021 1697 1679 1
  3022 1698 1681 1
  3023 1699 1682 1
  3024 1700 1691 1
  3025 1727 1706 1
  3026 1728 1706 1
  3027 1729 1708 1
  3028 1730 1710 1
  3029 1731 1712 1
  3030 1732 1714 1
  3031 1733 1716 1
  3032 1734 1723 1
  3033 1758 1739 1
  3034 1759 1739 1
  3035 1760 1741 1
  3036 1761 1743 1
  3037 1762 1745 1
  3038 1763 1747 1
  3039 1764 1751 1
  3040 1765 1754 1
  3041 1766 1755 1
  3042 1788 1769 1
  3043 1789 1769 1
  3044 1790 1771 1
  3045 1791 1773 1
  3046 1792 1775 1
  3047 1793 1777 1
  3048 1794 1781 1
  3049 1795 1784 1
  3050 1796 1785 1
  3051 1821 1799 1
  3052 1822 1799 1
  3053 1823 1801 1
  3054 1824 1803 1
  3055 1825 1805 1
  3056 1826 1807 1
  3057 1827 1808 1
  3058 1828 1817 1
  3059 1854 1833 1
  3060 1855 1833 1
  3061 1856 1835 1
  3062 1857 1837 1
  3063 1858 1839 1
  3064 1859 1841 1
  3065 1860 1843 1
  3066 1861 1850 1
  3067 1885 1866 1
  3068 1886 1866 1
  3069 1887 1868 1
  3070 1888 1870 1
  3071 1889 1872 1
  3072 1890 1874 1
  3073 1891 1878 1
  3074 1892 1881 1
  3075 1893 1882 1
  3076 1915 1896 1
  3077 1916 1896 1
  3078 1917 1898 1
  3079 1918 1900 1
  3080 1919 1902 1
  3081 1920 1904 1
  3082 1921 1908 1
  3083 1922 1911 1
  3084 1923 1912 1
  3085 1945 1926 1
  3086 1946 1926 1
  3087 1947 1928 1
  3088 1948 1930 1
  3089 1949 1932 1
  3090 1950 1934 1
  3091 1951 1938 1
  3092 1952 1941 1
  3093 1953 1942 1
  3094 1978 1956 1
  3095 1979 1956 1
  3096 1980 1958 1
  3097 1981 1960 1
  3098 1982 1962 1
  3099 1983 1964 1
  3100 1984 1965 1
  3101 1985 1974 1
  3102 2012 1990 1
  3103 2013 1990 1
  3104 2014 1992 1
  3105 2015 1994 1
  3106 2016 1996 1
  3107 2017 1998 1
  3108 2018 1999 1
  3109 2019 2008 1
  3110 2043 2024 1
  3111 2044 2024 1
  3112 2045 2026 1
  3113 2046 2028 1
  3114 2047 2030 1
  3115 2048 2032 1
  3116 2049 2036 1
  3117 2050 2039 1
  3118 2051 2040 1
  3119 2076 2054 1
  3120 2077 2054 1
  3121 2078 2056 1
  3122 2079 2058 1
  3123 2080 2060 1
  3124 2081 2062 1
  3125 2082 2063 1
  3126 2083 2072 1
  3127 2109 2088 1
  3128 2110 2088 1
  3129 2111 2090 1
  3130 2112 2092 1
  3131 2113 2094 1
  3132 2114 2096 1
  3133 2115 2098 1
  3134 2116 2105 1
  3135 2142 2121 1
  3136 2143 2121 1
  3137 2144 2123 1
  3138 2145 2125 1
  3139 2146 2127 1
  3140 2147 2129 1
  3141 2148 2131 1
  3142 2149 2138 1
  3143 2175 2154 1
  3144 2176 2154 1
  3145 2177 2156 1
  3146 2178 2158 1
  3147 2179 2160 1
  3148 2180 2162 1
  3149 2181 2164 1
  3150 2182 2171 1
  3151 2206 2187 1
  3152 2207 2187 1
  3153 2208 2189 1
  3154 2209 2191 1
  3155 2210 2193 1
  3156 2211 2195 1
  3157 2212 2199 1
  3158 2213 2202 1
  3159 2214 2203 1
  3160 2236 2217 1
  3161 2237 2217 1
  3162 2238 2219 1
  3163 2239 2221 1
  3164 2240 2223 1
  3165 2241 2225 1
  3166 2242 2229 1
  3167 2243 2232 1
  3168 2244 2233 1
  3169 2266 2247 1
  3170 2267 2247 1
  3171 2268 2249 1
  3172 2269 2251 1
  3173 2270 2253 1
  3174 2271 2255 1
  3175 2272 2262 1
  3176 2273 2263 1
  3177 2297 2278 1
  3178 2298 2278 1
  3179 2299 2280 1
  3180 2300 2282 1
  3181 2301 2284 1
  3182 2302 2286 1
  3183 2303 2293 1
  3184 2304 2294 1
  3185 2330 2309 1
  3186 2331 2309 1
  3187 2332 2311 1
  3188 2333 2313 1
  3189 2334 2315 1
  3190 2335 2317 1
  3191 2336 2319 1
  3192 2337 2326 1
  3193 2363 2342 1
  3194 2364 2342 1
  3195 2365 2344 1
  3196 2366 2346 1
  3197 2367 2348 1
  3198 2368 2350 1
  3199 2369 2352 1
  3200 2370 2359 1
  3201 2396 2375 1
  3202 2397 2375 1
  3203 2398 2377 1
  3204 2399 2379 1
  3205 2400 2381 1
  3206 2401 2383 1
  3207 2402 2385 1
  3208 2403 2392 1
  3209 2429 2408 1
  3210 2430 2408 1
  3211 2431 2410 1
  3212 2432 2412 1
  3213 2433 2414 1
  3214 2434 2416 1
  3215 2435 2418 1
  3216 2436 2425 1
  3217 2460 2441 1
  3218 2461 2441 1
  3219 2462 2443 1
  3220 2463 2445 1
  3221 2464 2447 1
  3222 2465 2449 1
  3223 2466 2456 1
  3224 2467 2457 1
  3225 2491 2472 1
  3226 2492 2472 1
  3227 2493 2474 1
  3228 2494 2476 1
  3229 2495 2478 1
  3230 2496 2480 1
  3231 2497 2487 1
  3232 2498 2488 1
  3233 2525 2503 1
  3234 2526 2503 1
  3235 2527 2505 1
  3236 2528 2507 1
  3237 2529 2509 1
  3238 2530 2511 1
  3239 2531 2512 1
  3240 2532 2521 1
  3241 2558 2537 1
  3242 2559 2537 1
  3243 2560 2539 1
  3244 2561 2541 1
  3245 2562 2543 1
  3246 2563 2545 1
  3247 2564 2547 1
  3248 2565 2554 1
  3249 2589 2570 1
  3250 2590 2570 1
  3251 2591 2572 1
  3252 2592 2574 1
  3253 2593 2576 1
  3254 2594 2578 1
  3255 2595 2585 1
  3256 2596 2586 1
  3257 2622 2601 1
  3258 2623 2601 1
  3259 2624 2603 1
  3260 2625 2605 1
  3261 2626 2607 1
  3262 2627 2609 1
  3263 2628 2611 1
  3264 2629 2618 1
  3265 2656 2634 1
  3266 2657 2634 1
  3267 2658 2636 1
  3268 2659 2638 1
  3269 2660 2640 1
  3270 2661 2642 1
  3271 2662 2643 1
  3272 2663 2652 1
  3273 2687 2668 1
  3274 2688 2668 1
  3275 2689 2670 1
  3276 2690 2672 1
  3277 2691 2674 1
  3278 2692 2676 1
  3279 2693 2680 1
  3280 2694 2683 1
  3281 2695 2684 1
  3282 2719 2698 1
  3283 2720 2698 1
  3284 2721 2700 1
  3285 2722 2702 1
  3286 2723 2704 1
  3287 2724 2706 1
  3288 2725 2708 1
  3289 2726 2715 1
  3290 2753 2731 1
  3291 2754 2731 1
  3292 2755 2733 1
  3293 2756 2735 1
  3294 2757 2737 1
  3295 2758 2739 1
  3296 2759 2740 1
  3297 2760 2749 1
  3298 2786 2765 1
  3299 2787 2765 1
  3300 2788 2767 1
  3301 2789 2769 1
  3302 2790 2771 1
  3303 2791 2773 1
  3304 2792 2775 1
  3305 2793 2782 1
  3306 2820 2798 1
  3307 2821 2798 1
  3308 2822 2800 1
  3309 2823 2802 1
  3310 2824 2804 1
  3311 2825 2806 1
  3312 2826 2807 1
  3313 2827 2816 1
  3314 2851 2832 1
  3315 2852 2832 1
  3316 2853 2834 1
  3317 2854 2836 1
  3318 2855 2838 1
  3319 2856 2840 1
  3320 2857 2844 1
  3321 2858 2847 1
  3322 2859 2848 1
  3323 2881 2862 1
  3324 2882 2862 1
  3325 2883 2864 1
  3326 2884 2866 1
  3327 2885 2868 1
  3328 2886 2870 1
  3329 2887 2877 1
  3330 2888 2878 1
  3331 2912 2893 1
  3332 2913 2893 1
  3333 2914 2895 1
  3334 2915 2897 1
  3335 2916 2899 1
  3336 2917 2901 1
  3337 2918 2905 1
  3338 2919 2908 1
  3339 2920 2909 1
  3340 2945 2923 1
  3341 2946 2923 1
  3342 2947 2925 1
  3343 2948 2927 1
  3344 2949 2929 1
  3345 2950 2931 1
  3346 2951 2932 1
  3347 2952 2941 1
  3348 2979 2957 1
  3349 2980 2957 1
  3350 2981 2959 1
  3351 2982 2961 1
  3352 2983 2963 1
  3353 2984 2965 1
  3354 2985 2966 1
  3355 2986 2975 1
  3356 3012 2991 1
  3357 3013 2991 1
  3358 3014 2993 1
  3359 3015 2995 1
  3360 3016 2997 1
  3361 3017 2999 1
  3362 3018 3001 1
  3363 3019 3008 1
  3364 3043 3024 1
  3365 3044 3024 1
  3366 3045 3026 1
  3367 3046 3028 1
  3368 3047 3030 1
  3369 3048 3032 1
  3370 3049 3036 1
  3371 3050 3039 1
  3372 3051 3040 1
  3373 3076 3054 1
  3374 3077 3054 1
  3375 3078 3056 1
  3376 3079 3058 1
  3377 3080 3060 1
  3378 3081 3062 1
  3379 3082 3063 1
  3380 3083 3072 1
  3381 3109 3088 1
  3382 3110 3088 1
  3383 3111 3090 1
  3384 3112 3092 1
  3385 3113 3094 1
  3386 3114 3096 1
  3387 3115 3098 1
  3388 3116 3105 1
  3389 3143 3121 1
  3390 3144 3121 1
  3391 3145 3123 1
  3392 3146 3125 1
  3393 3147 3127 1
  3394 3148 3129 1
  3395 3149 3130 1
  3396 3150 3139 1
  3397 3176 3155 1
  3398 3177 3155 1
  3399 3178 3157 1
  3400 3179 3159 1
  3401 3180 3161 1
  3402 3181 3163 1
  3403 3182 3165 1
  3404 3183 3172 1
  3405 3210 3188 1
  3406 3211 3188 1
  3407 3212 3190 1
  3408 3213 3192 1
  3409 3214 3194 1
  3410 3215 3196 1
  3411 3216 3197 1
  3412 3217 3206 1
  3413 3243 3222 1
  3414 3244 3222 1
  3415 3245 3224 1
  3416 3246 3226 1
  3417 3247 3228 1
  3418 3248 3230 1
  3419 3249 3232 1
  3420 3250 3239 1
  3421 3276 3255 1
  3422 3277 3255 1
  3423 3278 3257 1
  3424 3279 3259 1
  3425 3280 3261 1
  3426 3281 3263 1
  3427 3282 3265 1
  3428 3283 3272 1
  3429 3310 3288 1
  3430 3311 3288 1
  3431 3312 3290 1
  3432 3313 3292 1
  3433 3314 3294 1
  3434 3315 3296 1
  3435 3316 3297 1
  3436 3317 3306 1
  3437 3343 3322 1
  3438 3344 3322 1
  3439 3345 3324 1
  3440 3346 3326 1
  3441 3347 3328 1
  3442 3348 3330 1
  3443 3349 3332 1
  3444 3350 3339 1
  3445 3374 3355 1
  3446 3375 3355 1
  3447 3376 3357 1
  3448 3377 3359 1
  3449 3378 3361 1
  3450 3379 3363 1
  3451 3380 3367 1
  3452 3381 3370 1
  3453 3382 3371 1
  3454 3404 3385 1
  3455 3405 3385 1
  3456 3406 3387 1
  3457 3407 3389 1
  3458 3408 3391 1
  3459 3409 3393 1
  3460 3410 3397 1
  3461 3411 3400 1
  3462 3412 3401 1
  3463 3434 3415 1
  3464 3435 3415 1
  3465 3436 3417 1
  3466 3437 3419 1
  3467 3438 3421 1
  3468 3439 3423 1
  3469 3440 3430 1
  3470 3441 3431 1
  3471 3468 3446 1
  3472 3469 3446 1
  3473 3470 3448 1
  3474 3471 3450 1
  3475 3472 3452 1
  3476 3473 3454 1
  3477 3474 3455 1
  3478 3475 3464 1
  3479   29   12 1
  3480   30   12 1
  3481  124  111 1
  3482  125  111 1
  3483  215  202 1
  3484  216  202 1
  3485  249  230 1
  3486  250  230 1
  3487  283  264 1
  3488  284  264 1
  3489  317  298 1
  3490  318  298 1
  3491  351  332 1
  3492  352  332 1
  3493  382  369 1
  3494  383  369 1
  3495  449  430 1
  3496  450  430 1
  3497  483  464 1
  3498  484  464 1
  3499  517  498 1
  3500  518  498 1
  3501  581  562 1
  3502  582  562 1
  3503  771  758 1
  3504  772  758 1
  3505  802  789 1
  3506  803  789 1
  3507  833  820 1
  3508  834  820 1
  3509  867  848 1
  3510  868  848 1
  3511  931  918 1
  3512  932  918 1
  3513  962  949 1
  3514  963  949 1
  3515  996  977 1
  3516  997  977 1
  3517 1030 1011 1
  3518 1031 1011 1
  3519 1094 1075 1
  3520 1095 1075 1
  3521 1128 1109 1
  3522 1129 1109 1
  3523 1288 1269 1
  3524 1289 1269 1
  3525 1349 1336 1
  3526 1350 1336 1
  3527 1380 1367 1
  3528 1381 1367 1
  3529 1444 1431 1
  3530 1445 1431 1
  3531 1478 1459 1
  3532 1479 1459 1
  3533 1605 1592 1
  3534 1606 1592 1
  3535 1636 1623 1
  3536 1637 1623 1
  3537 1701 1684 1
  3538 1702 1684 1
  3539 1829 1810 1
  3540 1830 1810 1
  3541 1986 1967 1
  3542 1987 1967 1
  3543 2020 2001 1
  3544 2021 2001 1
  3545 2084 2065 1
  3546 2085 2065 1
  3547 2274 2261 1
  3548 2275 2261 1
  3549 2305 2292 1
  3550 2306 2292 1
  3551 2468 2455 1
  3552 2469 2455 1
  3553 2499 2486 1
  3554 2500 2486 1
  3555 2533 2514 1
  3556 2534 2514 1
  3557 2597 2584 1
  3558 2598 2584 1
  3559 2664 2645 1
  3560 2665 2645 1
  3561 2761 2742 1
  3562 2762 2742 1
  3563 2828 2809 1
  3564 2829 2809 1
  3565 2889 2876 1
  3566 2890 2876 1
  3567 2953 2934 1
  3568 2954 2934 1
  3569 2987 2968 1
  3570 2988 2968 1
  3571 3084 3065 1
  3572 3085 3065 1
  3573 3151 3132 1
  3574 3152 3132 1
  3575 3218 3199 1
  3576 3219 3199 1
  3577 3318 3299 1
  3578 3319 3299 1
  3579 3442 3429 1
  3580 3443 3429 1
  3581 3476 3457 1
  3582 3477 3457 1
  3583 2566 2544 1
  3584 1862 1840 1
  3585 3184 3162 1
  3586 3153 3128 1
  3587  933  911 1
  3588 2501 2479 1
  3589  964  942 1
  3590 2763 2738 1
  3591 3220 3195 1
  3592  869  844 1
  3593 2245 2224 1
  3594  583  558 1
  3595 2567 2552 1
  3596 2568 2552 1
  3597 2727 2713 1
  3598 2728 2713 1
  3599 1413 1399 1
  3600 1414 1399 1
  3601  614  600 1
  3602  615  600 1
  3603 3284 3270 1
  3604 3285 3270 1
  3605   63   49 1
  3606   64   49 1
  3607 2338 2324 1
  3608 2339 2324 1
  3609 2794 2780 1
  3610 2795 2780 1
  3611 1863 1848 1
  3612 1864 1848 1
  3613 1669 1655 1
  3614 1670 1655 1
  3615 2183 2169 1
  3616 2184 2169 1
  3617 1254 1240 1
  3618 1255 1240 1
  3619 2437 2423 1
  3620 2438 2423 1
  3621 2117 2103 1
  3622 2118 2103 1
  3623 1511 1497 1
  3624 1512 1497 1
  3625 1735 1721 1
  3626 1736 1721 1
  3627  647  633 1
  3628  648  633 1
  3629  415  401 1
  3630  416  401 1
  3631 2371 2357 1
  3632 2372 2357 1
  3633 1191 1177 1
  3634 1192 1177 1
  3635  900  886 1
  3636  901  886 1
  3637 1544 1530 1
  3638 1545 1530 1
  3639 3020 3006 1
  3640 3021 3006 1
  3641 2630 2616 1
  3642 2631 2616 1
  3643 2150 2136 1
  3644 2151 2136 1
  3645 3185 3170 1
  3646 3186 3170 1
  3647 3251 3237 1
  3648 3252 3237 1
  3649  680  666 1
  3650  681  666 1
  3651 3351 3337 1
  3652 3352 3337 1
  3653 3117 3103 1
  3654 3118 3103 1
  3655 2404 2390 1
  3656 2405 2390 1
  3657 1446 1424 1
  3658 1062 1041 1
  3659  742  721 1
  3660 1480 1455 1
  3661 1223 1202 1
  3662 1546 1522 1
  3663  353  328 1
  3664 1831 1806 1
  3665  319  294 1
  3666 2470 2448 1
  3667 1032 1007 1
  3668  549  528 1
  3669  712  691 1
  3670  251  226 1
  3671 1290 1265 1
  3672 3478 3453 1
  3673 3320 3295 1
  3674  417  393 1
  3675 1320 1299 1
  3676 2666 2641 1
  3677 2373 2349 1
  3678 2052 2031 1
  3679  485  460 1
  3680 2185 2161 1
  3681 2696 2675 1
  3682 2860 2839 1
  3683  451  426 1
  3684 2119 2095 1
  3685  285  260 1
  3686 1160 1139 1
  3687  126  104 1
  3688 3353 3329 1
  3689 2086 2061 1
  3690 2152 2128 1
  3691 2406 2382 1
  3692 1924 1903 1
  3693 2830 2805 1
  3694 2729 2705 1
  3695  773  751 1
  3696 1767 1746 1
  3697 2891 2869 1
  3698 1671 1645 1
  3699 1672 1647 1
  3700 1193 1169 1
  3701 1351 1329 1
  3702 1954 1933 1
  3703 1797 1776 1
  3704 2599 2577 1
  3705  649  625 1
  3706  616  592 1
  3707 2921 2900 1
  3708  186  165 1
  3709   31    8 1
  3710 1988 1963 1
  3711 2307 2285 1
  3712 2276 2254 1
  3713 2632 2608 1
  3714 3479 3451 1
  3715 2955 2930 1
  3716  682  658 1
  3717  519  494 1
  3718 1607 1585 1
  3719 1415 1391 1
  3720 1256 1232 1
  3721 1576 1555 1
  3722 3444 3422 1
  3723   65   41 1
  3724 1703 1680 1
  3725 2340 2316 1
  3726   95   74 1
  3727 2989 2964 1
  3728 2796 2772 1
  3729 3413 3392 1
  3730 1382 1360 1
  3731  902  878 1
  3732 1513 1489 1
  3733 1737 1713 1
  3734 1096 1071 1
  3735 1894 1873 1
  3736 2439 2415 1
  3737 2215 2194 1
  3738 3052 3031 1
  3739 3022 2998 1
  3740  217  195 1
  3741 3383 3362 1
  3742 2535 2510 1
  3743  156  135 1
  3744 3086 3061 1
  3745 3286 3262 1
  3746  835  813 1
  3747 3253 3229 1
  3748  804  782 1
  3749  998  973 1
  3750  384  362 1
  3751 3119 3095 1
  3752 2022 1997 1
  3753 1130 1105 1
  3754 1638 1616 1
  3755   32    2 1
  3756 1704 1674 1
@<TRIPOS>SUBSTRUCTURE
     1   G     3 RESIDUE           4 X       G     1 ROOT
     2   A    36 RESIDUE           4 X       A     2
     3   U    69 RESIDUE           4 X       U     2
     4   C    99 RESIDUE           4 X       C     2
     5   U   130 RESIDUE           4 X       U     2
     6   U   160 RESIDUE           4 X       U     2
     7   C   190 RESIDUE           4 X       C     2
     8   G   221 RESIDUE           4 X       G     2
     9   G   255 RESIDUE           4 X       G     2
    10   G   289 RESIDUE           4 X       G     2
    11   G   323 RESIDUE           4 X       G     2
    12   C   357 RESIDUE           4 X       C     2
    13   A   388 RESIDUE           4 X       A     2
    14   G   421 RESIDUE           4 X       G     2
    15   G   455 RESIDUE           4 X       G     2
    16   G   489 RESIDUE           4 X       G     2
    17   U   523 RESIDUE           4 X       U     2
    18   G   553 RESIDUE           4 X       G     2
    19   A   587 RESIDUE           4 X       A     2
    20   A   620 RESIDUE           4 X       A     2
    21   A   653 RESIDUE           4 X       A     2
    22   U   686 RESIDUE           4 X       U     2
    23   U   716 RESIDUE           4 X       U     2
    24   C   746 RESIDUE           4 X       C     2
    25   C   777 RESIDUE           4 X       C     2
    26   C   808 RESIDUE           4 X       C     2
    27   G   839 RESIDUE           4 X       G     2
    28   A   873 RESIDUE           4 X       A     2
    29   C   906 RESIDUE           4 X       C     2
    30   C   937 RESIDUE           4 X       C     2
    31   G   968 RESIDUE           4 X       G     2
    32   G  1002 RESIDUE           4 X       G     2
    33   U  1036 RESIDUE           4 X       U     2
    34   G  1066 RESIDUE           4 X       G     2
    35   G  1100 RESIDUE           4 X       G     2
    36   U  1134 RESIDUE           4 X       U     2
    37   A  1164 RESIDUE           4 X       A     2
    38   U  1197 RESIDUE           4 X       U     2
    39   A  1227 RESIDUE           4 X       A     2
    40   G  1260 RESIDUE           4 X       G     2
    41   U  1294 RESIDUE           4 X       U     2
    42   C  1324 RESIDUE           4 X       C     2
    43   C  1355 RESIDUE           4 X       C     2
    44   A  1386 RESIDUE           4 X       A     2
    45   C  1419 RESIDUE           4 X       C     2
    46   G  1450 RESIDUE           4 X       G     2
    47   A  1484 RESIDUE           4 X       A     2
    48   A  1517 RESIDUE           4 X       A     2
    49   U  1550 RESIDUE           4 X       U     2
    50   C  1580 RESIDUE           4 X       C     2
    51   C  1611 RESIDUE           4 X       C     2
    52   A  1642 RESIDUE           4 X       A     1
    53   G  1675 RESIDUE           4 Z       G     1 ROOT
    54   A  1708 RESIDUE           4 Z       A     2
    55   U  1741 RESIDUE           4 Z       U     2
    56   U  1771 RESIDUE           4 Z       U     2
    57   G  1801 RESIDUE           4 Z       G     2
    58   A  1835 RESIDUE           4 Z       A     2
    59   U  1868 RESIDUE           4 Z       U     2
    60   U  1898 RESIDUE           4 Z       U     2
    61   U  1928 RESIDUE           4 Z       U     2
    62   G  1958 RESIDUE           4 Z       G     2
    63   G  1992 RESIDUE           4 Z       G     2
    64   U  2026 RESIDUE           4 Z       U     2
    65   G  2056 RESIDUE           4 Z       G     2
    66   A  2090 RESIDUE           4 Z       A     2
    67   A  2123 RESIDUE           4 Z       A     2
    68   A  2156 RESIDUE           4 Z       A     2
    69   U  2189 RESIDUE           4 Z       U     2
    70   U  2219 RESIDUE           4 Z       U     2
    71   C  2249 RESIDUE           4 Z       C     2
    72   C  2280 RESIDUE           4 Z       C     2
    73   A  2311 RESIDUE           4 Z       A     2
    74   A  2344 RESIDUE           4 Z       A     2
    75   A  2377 RESIDUE           4 Z       A     2
    76   A  2410 RESIDUE           4 Z       A     2
    77   C  2443 RESIDUE           4 Z       C     2
    78   C  2474 RESIDUE           4 Z       C     2
    79   G  2505 RESIDUE           4 Z       G     2
    80   A  2539 RESIDUE           4 Z       A     2
    81   C  2572 RESIDUE           4 Z       C     2
    82   A  2603 RESIDUE           4 Z       A     2
    83   G  2636 RESIDUE           4 Z       G     2
    84   U  2670 RESIDUE           4 Z       U     2
    85   A  2700 RESIDUE           4 Z       A     2
    86   G  2733 RESIDUE           4 Z       G     2
    87   A  2767 RESIDUE           4 Z       A     2
    88   G  2800 RESIDUE           4 Z       G     2
    89   U  2834 RESIDUE           4 Z       U     2
    90   C  2864 RESIDUE           4 Z       C     2
    91   U  2895 RESIDUE           4 Z       U     2
    92   G  2925 RESIDUE           4 Z       G     2
    93   G  2959 RESIDUE           4 Z       G     2
    94   A  2993 RESIDUE           4 Z       A     2
    95   U  3026 RESIDUE           4 Z       U     2
    96   G  3056 RESIDUE           4 Z       G     2
    97   A  3090 RESIDUE           4 Z       A     2
    98   G  3123 RESIDUE           4 Z       G     2
    99   A  3157 RESIDUE           4 Z       A     2
   100   G  3190 RESIDUE           4 Z       G     2
   101   A  3224 RESIDUE           4 Z       A     2
   102   A  3257 RESIDUE           4 Z       A     2
   103   G  3290 RESIDUE           4 Z       G     2
   104   A  3324 RESIDUE           4 Z       A     2
   105   U  3357 RESIDUE           4 Z       U     2
   106   U  3387 RESIDUE           4 Z       U     2
   107   C  3417 RESIDUE           4 Z       C     2
   108   G  3448 RESIDUE           4 Z       G     1
