@<TRIPOS>MOLECULE
2KD4_PRL_A_17
 16 18 0 0 0
SMALL
GASTEIGER
****
Coordinates from PDB:2KD4:A:17 Model:1 without hydrogens
@<TRIPOS>ATOM
      1 C          23.9030   29.3320   22.7870 C.ar    1  UNL1        0.0029
      2 C          23.0860   29.4510   21.6840 C.ar    1  UNL1        0.0182
      3 C          23.4490   28.9200   20.4640 C.ar    1  UNL1        0.0906
      4 C          24.6440   28.2490   20.3280 C.ar    1  UNL1        0.0371
      5 C          28.7550   26.7080   22.1920 C.ar    1  UNL1        0.0371
      6 C          29.5970   26.5320   23.2660 C.ar    1  UNL1        0.0906
      7 C          29.2790   27.0150   24.5210 C.ar    1  UNL1        0.0182
      8 C          28.0770   27.7000   24.7210 C.ar    1  UNL1        0.0029
      9 C          25.9640   28.5480   23.7720 C.ar    1  UNL1        0.0030
     10 N          26.7020   27.4950   21.3070 N.ar    1  UNL1       -0.2453
     11 C          25.4970   28.1230   21.4310 C.ar    1  UNL1        0.0826
     12 C          27.1910   27.8830   23.6370 C.ar    1  UNL1        0.0178
     13 C          25.1280   28.6670   22.6680 C.ar    1  UNL1        0.0178
     14 C          27.5420   27.3790   22.3680 C.ar    1  UNL1        0.0826
     15 N          22.6590   29.0930   19.3930 N.pl3   1  UNL1       -0.1280
     16 N          30.7280   25.8520   23.0470 N.pl3   1  UNL1       -0.1280
@<TRIPOS>BOND
     1     1     2   ar
     2     1    13   ar
     3     2     3   ar
     4     3     4   ar
     5     3    15    1
     6     4    11   ar
     7     5     6   ar
     8     5    14   ar
     9     6     7   ar
    10     6    16    1
    11     7     8   ar
    12     8    12   ar
    13     9    12   ar
    14     9    13   ar
    15    10    11   ar
    16    10    14   ar
    17    11    13   ar
    18    12    14   ar
