2KD4_PRL_A_17
 OpenBabel10091713583D
Coordinates from PDB:2KD4:A:17 Model:1 without hydrogens
 27 29  0  0  0  0  0  0  0  0999 V2000
   23.9030   29.3320   22.7870 C   0  0  0  0  0  0  0  0  0  0  0  0
   23.0860   29.4510   21.6840 C   0  0  0  0  0  0  0  0  0  0  0  0
   23.4490   28.9200   20.4640 C   0  0  0  0  0  0  0  0  0  0  0  0
   24.6440   28.2490   20.3280 C   0  0  0  0  0  0  0  0  0  0  0  0
   28.7550   26.7080   22.1920 C   0  0  0  0  0  0  0  0  0  0  0  0
   29.5970   26.5320   23.2660 C   0  0  0  0  0  0  0  0  0  0  0  0
   29.2790   27.0150   24.5210 C   0  0  0  0  0  0  0  0  0  0  0  0
   28.0770   27.7000   24.7210 C   0  0  0  0  0  0  0  0  0  0  0  0
   25.9640   28.5480   23.7720 C   0  0  0  0  0  0  0  0  0  0  0  0
   26.7020   27.4950   21.3070 N   0  0  0  0  0  0  0  0  0  0  0  0
   25.4970   28.1230   21.4310 C   0  0  0  0  0  0  0  0  0  0  0  0
   27.1910   27.8830   23.6370 C   0  0  0  0  0  0  0  0  0  0  0  0
   25.1280   28.6670   22.6680 C   0  0  0  0  0  0  0  0  0  0  0  0
   27.5420   27.3790   22.3680 C   0  0  0  0  0  0  0  0  0  0  0  0
   22.6590   29.0930   19.3930 N   0  0  0  0  0  0  0  0  0  0  0  0
   30.7280   25.8520   23.0470 N   0  0  0  0  0  0  0  0  0  0  0  0
   23.6135   29.7304   23.6939 H   0  0  0  0  0  0  0  0  0  0  0  0
   22.1853   29.9469   21.7724 H   0  0  0  0  0  0  0  0  0  0  0  0
   24.9093   27.8412   19.4178 H   0  0  0  0  0  0  0  0  0  0  0  0
   29.0179   26.3465   21.2618 H   0  0  0  0  0  0  0  0  0  0  0  0
   29.9283   26.8701   25.3099 H   0  0  0  0  0  0  0  0  0  0  0  0
   27.8388   28.0695   25.6547 H   0  0  0  0  0  0  0  0  0  0  0  0
   25.6843   28.9453   24.6824 H   0  0  0  0  0  0  0  0  0  0  0  0
   21.8037   29.5719   19.4844 H   0  0  0  0  0  0  0  0  0  0  0  0
   22.9348   28.7410   18.5159 H   0  0  0  0  0  0  0  0  0  0  0  0
   30.9341   25.5171   22.1444 H   0  0  0  0  0  0  0  0  0  0  0  0
   31.3542   25.6864   23.7884 H   0  0  0  0  0  0  0  0  0  0  0  0
  1  2  2  0  0  0  0
  1 13  1  0  0  0  0
  1 17  1  0  0  0  0
  2  3  1  0  0  0  0
  2 18  1  0  0  0  0
  3  4  2  0  0  0  0
  3 15  1  0  0  0  0
  4 11  1  0  0  0  0
  4 19  1  0  0  0  0
  5  6  2  0  0  0  0
  5 14  1  0  0  0  0
  5 20  1  0  0  0  0
  6  7  1  0  0  0  0
  6 16  1  0  0  0  0
  7  8  2  0  0  0  0
  7 21  1  0  0  0  0
  8 12  1  0  0  0  0
  8 22  1  0  0  0  0
  9 12  2  0  0  0  0
  9 13  1  0  0  0  0
  9 23  1  0  0  0  0
 10 11  1  0  0  0  0
 10 14  2  0  0  0  0
 11 13  2  0  0  0  0
 12 14  1  0  0  0  0
 15 24  1  0  0  0  0
 15 25  1  0  0  0  0
 16 26  1  0  0  0  0
 16 27  1  0  0  0  0
A    1
C1
A    2
C2
A    3
C3
A    4
C4
A    5
C5
A    6
C6
A    7
C7
A    8
C8
A    9
C9
A   10
N10
A   11
C11
A   12
C12
A   13
C13
A   14
C14
A   15
N15
A   16
N16
M  END
>  <InstanceId>
2KD4_PRL_A_17

>  <ChemCompId>
PRL

>  <PdbId>
2KD4

>  <ChainId>
A

>  <ResidueNumber>
17

>  <InsertionCode>


>  <Model>
1

>  <AltIds>


>  <MissingHeavyAtoms>
0

>  <ObservedFormula>
C13 N3

>  <Name>
PROFLAVIN

>  <SystematicName>
acridine-3,6-diamine

>  <Synonyms>


>  <Type>
NON-POLYMER

>  <Formula>
C13 H11 N3

>  <MolecularWeight>
209.247

>  <ModifiedDate>
2011-06-04

>  <Parent>


>  <OneLetterCode>


>  <SubcomponentList>


>  <AmbiguousFlag>
N

>  <InChI>
InChI=1S/C13H11N3/c14-10-3-1-8-5-9-2-4-11(15)7-13(9)16-12(8)6-10/h1-7H,14-15H2

>  <InChIKey>
WDVSHHCDHLJJJR-UHFFFAOYSA-N

>  <SMILES>
c1cc(cc2c1cc3ccc(cc3n2)N)N

$$$$
