REMARK  0 active torsions:
REMARK  status: ('A' for Active; 'I' for Inactive)
ROOT
ATOM      1  C   UNL d   1      23.903  29.332  22.787  0.00  0.00     0.003 A 
ATOM      2  C   UNL d   1      23.086  29.451  21.684  0.00  0.00     0.021 A 
ATOM      3  C   UNL d   1      23.449  28.920  20.464  0.00  0.00     0.104 A 
ATOM      4  C   UNL d   1      24.644  28.249  20.328  0.00  0.00     0.040 A 
ATOM      5  C   UNL d   1      28.755  26.708  22.192  0.00  0.00     0.040 A 
ATOM      6  C   UNL d   1      29.597  26.532  23.266  0.00  0.00     0.104 A 
ATOM      7  C   UNL d   1      29.279  27.015  24.521  0.00  0.00     0.021 A 
ATOM      8  C   UNL d   1      28.077  27.700  24.721  0.00  0.00     0.003 A 
ATOM      9  C   UNL d   1      25.964  28.548  23.772  0.00  0.00     0.003 A 
ATOM     10  N   UNL d   1      26.702  27.495  21.307  0.00  0.00    -0.245 NA
ATOM     11  C   UNL d   1      25.497  28.123  21.431  0.00  0.00     0.083 A 
ATOM     12  C   UNL d   1      27.191  27.883  23.637  0.00  0.00     0.018 A 
ATOM     13  C   UNL d   1      25.128  28.667  22.668  0.00  0.00     0.018 A 
ATOM     14  C   UNL d   1      27.542  27.379  22.368  0.00  0.00     0.083 A 
ATOM     15  N   UNL d   1      22.659  29.093  19.393  0.00  0.00    -0.148 N 
ATOM     16  N   UNL d   1      30.728  25.852  23.047  0.00  0.00    -0.148 N 
ENDROOT
TORSDOF 0
