untitled
 OpenBabel10091713583D

 20 22  0  0  0  0  0  0  0  0999 V2000
   20.4970   19.9740   22.6620 C   0  0  0  0  0  3  0  0  0  0  0  0
   21.0070   19.3520   21.5090 C   0  0  0  0  0  3  0  0  0  0  0  0
   22.2310   18.7030   21.5660 C   0  0  0  0  0  0  0  0  0  0  0  0
   22.9700   18.6520   22.7290 C   0  0  0  0  0  3  0  0  0  0  0  0
   23.6460   19.7760   27.2940 C   0  0  0  0  0  3  0  0  0  0  0  0
   23.2250   20.3900   28.4520 C   0  0  0  0  0  0  0  0  0  0  0  0
   22.0190   21.0590   28.4830 C   0  0  0  0  0  3  0  0  0  0  0  0
   21.2070   21.1230   27.3670 C   0  0  0  0  0  3  0  0  0  0  0  0
   20.8110   20.5530   25.0470 C   0  0  0  0  0  3  0  0  0  0  0  0
   23.2450   19.2160   25.0020 N   0  0  0  0  0  0  0  0  0  0  0  0
   22.4810   19.2730   23.8770 C   0  0  0  0  0  0  0  0  0  0  0  0
   21.6130   20.4980   26.1830 C   0  0  0  0  0  0  0  0  0  0  0  0
   21.2400   19.9400   23.8640 C   0  0  0  0  0  0  0  0  0  0  0  0
   22.8440   19.8250   26.1490 C   0  0  0  0  0  0  0  0  0  0  0  0
   22.7570   18.1100   20.4890 N   0  0  0  0  0  0  0  0  0  0  0  0
   23.9980   20.3380   29.5490 N   0  0  0  0  0  0  0  0  0  0  0  0
   22.2684   18.1187   19.6344 H   0  0  0  0  0  0  0  0  0  0  0  0
   23.6329   17.6647   20.5507 H   0  0  0  0  0  0  0  0  0  0  0  0
   24.8580   19.8596   29.5229 H   0  0  0  0  0  0  0  0  0  0  0  0
   23.7046   20.7783   30.3792 H   0  0  0  0  0  0  0  0  0  0  0  0
  1  2  2  0  0  0  0
  1 13  1  0  0  0  0
  2  3  1  0  0  0  0
  3  4  2  0  0  0  0
  3 15  1  0  0  0  0
  4 11  1  0  0  0  0
  5  6  2  0  0  0  0
  5 14  1  0  0  0  0
  6  7  1  0  0  0  0
  6 16  1  0  0  0  0
  7  8  2  0  0  0  0
  8 12  1  0  0  0  0
  9 12  2  0  0  0  0
  9 13  1  0  0  0  0
 10 11  1  0  0  0  0
 10 14  2  0  0  0  0
 11 13  2  0  0  0  0
 12 14  1  0  0  0  0
 15 17  1  0  0  0  0
 15 18  1  0  0  0  0
 16 19  1  0  0  0  0
 16 20  1  0  0  0  0
M  END
$$$$
