@<TRIPOS>MOLECULE
1UUI_P12_B_1046
 23 24 0 0 0
SMALL
GASTEIGER
****
Coordinates from PDB:1UUI:B:1046 Model:1 without hydrogens
@<TRIPOS>ATOM
      1 C          -9.9120    1.3170   -1.7270 C.ar    1  UNL1        0.0400
      2 C         -11.1370    1.8890   -1.2940 C.ar    1  UNL1        0.1388
      3 C         -11.6960    1.5110   -0.0430 C.ar    1  UNL1        0.0414
      4 C         -11.0290    0.5580    0.7760 C.ar    1  UNL1        0.0713
      5 C          -9.8030   -0.0140    0.3390 C.ar    1  UNL1        0.1402
      6 C          -9.2460    0.3650   -0.9110 C.ar    1  UNL1        0.0399
      7 O          -9.1310   -0.9760    1.1570 O.3     1  UNL1       -0.4753
      8 C          -7.9270   -0.4110    1.6910 C.3     1  UNL1        0.2122
      9 C          -7.0000   -1.5420    2.1390 C.3     1  UNL1        0.1278
     10 C          -5.9690   -1.0090    3.1390 C.3     1  UNL1        0.3191
     11 N          -4.6900   -0.7520    2.4400 N.4     1  UNL1        0.5973
     12 C         -13.6870    1.4050    2.6370 C.3     1  UNL1        0.1804
     13 C         -13.3190    1.5730    4.1210 C.3     1  UNL1        0.2305
     14 N         -12.8050    0.3020    4.7210 N.pl3   1  UNL1       -0.1766
     15 C         -13.3040   -1.0320    4.2630 C.3     1  UNL1        0.2305
     16 C         -13.7050   -1.0200    2.7780 C.3     1  UNL1        0.1804
     17 N         -13.1290    0.1500    2.0640 N.4     1  UNL1        0.3860
     18 C         -11.6310    0.1380    2.1370 C.3     1  UNL1        0.1696
     19 C         -12.0350    0.3700    5.8970 C.cat   1  UNL1        0.4958
     20 N         -11.6030    1.5700    6.3790 N.pl3   1  UNL1        0.1298
     21 N         -11.5910   -0.7670    6.5050 N.pl3   1  UNL1        0.1298
     22 O         -11.8100    2.8460   -2.1170 O.3     1  UNL1       -0.4714
     23 C         -11.6990    4.1440   -1.5280 C.3     1  UNL1        0.2525
@<TRIPOS>BOND
     1     1     2   ar
     2     1     6   ar
     3     2     3   ar
     4     2    22    1
     5     3     4   ar
     6     4     5   ar
     7     4    18    1
     8     5     6   ar
     9     5     7    1
    10     7     8    1
    11     8     9    1
    12     9    10    1
    13    10    11    1
    14    12    13    1
    15    12    17    1
    16    13    14    1
    17    14    15    1
    18    14    19    1
    19    15    16    1
    20    16    17    1
    21    17    18    1
    22    19    20    2
    23    19    21    1
    24    22    23    1
