1UUI_P12_B_1046
 OpenBabel10091713573D
Coordinates from PDB:1UUI:B:1046 Model:1 without hydrogens
 23 24  0  0  0  0  0  0  0  0999 V2000
   -9.9120    1.3170   -1.7270 C   0  0  0  0  0  0  0  0  0  0  0  0
  -11.1370    1.8890   -1.2940 C   0  0  0  0  0  0  0  0  0  0  0  0
  -11.6960    1.5110   -0.0430 C   0  0  0  0  0  0  0  0  0  0  0  0
  -11.0290    0.5580    0.7760 C   0  0  0  0  0  0  0  0  0  0  0  0
   -9.8030   -0.0140    0.3390 C   0  0  0  0  0  0  0  0  0  0  0  0
   -9.2460    0.3650   -0.9110 C   0  0  0  0  0  0  0  0  0  0  0  0
   -9.1310   -0.9760    1.1570 O   0  0  0  0  0  0  0  0  0  0  0  0
   -7.9270   -0.4110    1.6910 C   0  0  0  0  0  0  0  0  0  0  0  0
   -7.0000   -1.5420    2.1390 C   0  0  0  0  0  0  0  0  0  0  0  0
   -5.9690   -1.0090    3.1390 C   0  0  0  0  0  0  0  0  0  0  0  0
   -4.6900   -0.7520    2.4400 N   0  3  0  0  0  0  0  0  0  0  0  0
  -13.6870    1.4050    2.6370 C   0  0  0  0  0  0  0  0  0  0  0  0
  -13.3190    1.5730    4.1210 C   0  0  0  0  0  0  0  0  0  0  0  0
  -12.8050    0.3020    4.7210 N   0  0  0  0  0  0  0  0  0  0  0  0
  -13.3040   -1.0320    4.2630 C   0  0  0  0  0  0  0  0  0  0  0  0
  -13.7050   -1.0200    2.7780 C   0  0  0  0  0  0  0  0  0  0  0  0
  -13.1290    0.1500    2.0640 N   0  3  0  0  0  0  0  0  0  0  0  0
  -11.6310    0.1380    2.1370 C   0  0  0  0  0  0  0  0  0  0  0  0
  -12.0350    0.3700    5.8970 C   0  0  0  0  0  0  0  0  0  0  0  0
  -11.6030    1.5700    6.3790 N   0  0  0  0  0  0  0  0  0  0  0  0
  -11.5910   -0.7670    6.5050 N   0  0  0  0  0  0  0  0  0  0  0  0
  -11.8100    2.8460   -2.1170 O   0  0  0  0  0  0  0  0  0  0  0  0
  -11.6990    4.1440   -1.5280 C   0  0  0  0  0  0  0  0  0  0  0  0
  1  2  2  0  0  0  0
  1  6  1  0  0  0  0
  2  3  1  0  0  0  0
  2 22  1  0  0  0  0
  3  4  2  0  0  0  0
  4  5  1  0  0  0  0
  4 18  1  0  0  0  0
  5  6  2  0  0  0  0
  5  7  1  0  0  0  0
  7  8  1  0  0  0  0
  8  9  1  0  0  0  0
  9 10  1  0  0  0  0
 10 11  1  0  0  0  0
 12 13  1  0  0  0  0
 12 17  1  0  0  0  0
 13 14  1  0  0  0  0
 14 15  1  0  0  0  0
 14 19  1  0  0  0  0
 15 16  1  0  0  0  0
 16 17  1  0  0  0  0
 17 18  1  0  0  0  0
 19 20  2  0  0  0  0
 19 21  1  0  0  0  0
 22 23  1  0  0  0  0
A    1
C5
A    2
C4
A    3
C3
A    4
C2
A    5
C1
A    6
C6
A    7
OA
A    8
CB
A    9
CG
A   10
CD
A   11
NE
A   12
CG1
A   13
CD1
A   14
NE1
A   15
CD2
A   16
CG2
A   17
NB
A   18
CA
A   19
CZ
A   20
NH1
A   21
NH2
A   22
OA1
A   23
CB1
M  CHG  2  11   1  17   1
M  END
>  <InstanceId>
1UUI_P12_B_1046

>  <ChemCompId>
P12

>  <PdbId>
1UUI

>  <ChainId>
B

>  <ResidueNumber>
1046

>  <InsertionCode>


>  <Model>
1

>  <AltIds>


>  <MissingHeavyAtoms>
0

>  <ObservedFormula>
C16 N5 O2

>  <Name>
4-[AMINO(IMINO)METHYL]-1-[2-(3-AMMONIOPROPOXY)-5-METHOXYBENZYL]PIPERAZIN-1-IUM

>  <SystematicName>
3-[2-[(4-carbamimidoylpiperazin-1-ium-1-yl)methyl]-4-methoxy-phenoxy]propylazanium

>  <Synonyms>
RBT205 INHIBITOR

>  <Type>
NON-POLYMER

>  <Formula>
C16 H29 N5 O2

>  <MolecularWeight>
323.434

>  <ModifiedDate>
2011-06-04

>  <Parent>


>  <OneLetterCode>


>  <SubcomponentList>


>  <AmbiguousFlag>
N

>  <InChI>
InChI=1S/C16H27N5O2/c1-22-14-3-4-15(23-10-2-5-17)13(11-14)12-20-6-8-21(9-7-20)16(18)19/h3-4,11H,2,5-10,12,17H2,1H3,(H3,18,19)/p+2

>  <InChIKey>
XWWAFELYNPUCDX-UHFFFAOYSA-P

>  <SMILES>
[H]/N=C(\N)/N1CC[NH+](CC1)Cc2cc(ccc2OCCC[NH3+])OC

$$$$
