REMARK  7 active torsions:
REMARK  status: ('A' for Active; 'I' for Inactive)
REMARK    1  A    between atoms: C_2  and  O_22 
REMARK    2  A    between atoms: C_4  and  C_18 
REMARK    3  A    between atoms: C_5  and  O_7 
REMARK    4  A    between atoms: O_7  and  C_8 
REMARK    5  A    between atoms: C_8  and  C_9 
REMARK    6  A    between atoms: C_9  and  C_10 
REMARK       I    between atoms: N_14  and  C_19 
REMARK    7  A    between atoms: N_17  and  C_18 
ROOT
ATOM      1  C   UNL d   1      -9.912   1.317  -1.727  0.00  0.00     0.026 A 
ATOM      2  C   UNL d   1     -11.137   1.889  -1.294  0.00  0.00     0.094 A 
ATOM      3  C   UNL d   1     -11.696   1.511  -0.043  0.00  0.00     0.024 A 
ATOM      4  C   UNL d   1     -11.029   0.558   0.776  0.00  0.00     0.035 A 
ATOM      5  C   UNL d   1      -9.803  -0.014   0.339  0.00  0.00     0.092 A 
ATOM      6  C   UNL d   1      -9.246   0.365  -0.911  0.00  0.00     0.026 A 
ENDROOT
BRANCH   4   7
ATOM      7  C   UNL d   1     -11.631   0.138   2.137  0.00  0.00     0.279 C 
BRANCH   7   8
ATOM      8  N   UNL d   1     -13.129   0.150   2.064  0.00  0.00     0.146 N 
ATOM      9  C   UNL d   1     -13.687   1.405   2.637  0.00  0.00     0.275 C 
ATOM     10  C   UNL d   1     -13.319   1.573   4.121  0.00  0.00     0.155 C 
ATOM     11  N   UNL d   1     -12.805   0.302   4.721  0.00  0.00    -0.176 N 
ATOM     12  C   UNL d   1     -13.304  -1.032   4.263  0.00  0.00     0.155 C 
ATOM     13  C   UNL d   1     -12.035   0.370   5.897  0.00  0.00     0.764 C 
ATOM     14  C   UNL d   1     -13.705  -1.020   2.778  0.00  0.00     0.275 C 
ATOM     15  N   UNL d   1     -11.603   1.570   6.379  0.00  0.00     0.061 N 
ATOM     16  N   UNL d   1     -11.591  -0.767   6.505  0.00  0.00     0.061 N 
ENDBRANCH   7   8
ENDBRANCH   4   7
BRANCH   5  17
ATOM     17  O   UNL d   1      -9.131  -0.976   1.157  0.00  0.00    -0.331 OA
BRANCH  17  18
ATOM     18  C   UNL d   1      -7.927  -0.411   1.691  0.00  0.00     0.151 C 
BRANCH  18  19
ATOM     19  C   UNL d   1      -7.000  -1.542   2.139  0.00  0.00     0.074 C 
BRANCH  19  20
ATOM     20  C   UNL d   1      -5.969  -1.009   3.139  0.00  0.00     0.341 C 
ATOM     21  N   UNL d   1      -4.690  -0.752   2.440  0.00  0.00     0.618 N 
ENDBRANCH  19  20
ENDBRANCH  18  19
ENDBRANCH  17  18
ENDBRANCH   5  17
BRANCH   2  22
ATOM     22  O   UNL d   1     -11.810   2.846  -2.117  0.00  0.00    -0.328 OA
ATOM     23  C   UNL d   1     -11.699   4.144  -1.528  0.00  0.00     0.181 C 
ENDBRANCH   2  22
TORSDOF 7
