@<TRIPOS>MOLECULE
ligand.pdb
 51 53 0 0 0
SMALL
GASTEIGER

@<TRIPOS>ATOM
      1 N           4.6758   -0.2919    3.6769 N.3     1  UNL1       -0.3184
      2 CA          4.2209    0.7283    2.7072 C.3     1  UNL1        0.1039
      3 HA          4.4866    1.7107    3.1089 H       1  UNL1        0.0574
      4 C           2.6864    0.6733    2.5650 C.2     1  UNL1        0.3217
      5 O           2.0709    0.4241    1.5426 O.2     1  UNL1       -0.2493
      6 OXT         2.0531    0.9158    3.7431 O.3     1  UNL1       -0.4795
      7 C           4.9406    0.4969    1.3726 C.3     1  UNL1       -0.0199
      8 C           4.7582    1.6184    0.3527 C.3     1  UNL1       -0.0230
      9 S           5.2207    3.2327    0.9450 S.3     1  UNL1       -0.2533
     10 H           4.4363    3.6465    1.9545 H       1  UNL1        0.0821
     11 C           5.0361    4.2854   -0.4645 C.3     1  UNL1       -0.0366
     12 C           6.9418    3.1604    1.3935 C.3     1  UNL1        0.0041
     13 C           7.5339    4.3955    2.0703 C.3     1  UNL1        0.0970
     14 H           8.5785    4.1380    2.2967 H       1  UNL1        0.0631
     15 O           7.5964    5.5368    1.2006 O.3     1  UNL1       -0.3472
     16 C           7.7836    6.6713    2.0750 C.3     1  UNL1        0.1666
     17 H           8.8464    6.7592    2.3312 H       1  UNL1        0.0866
     18 C           6.9037    6.3821    3.2977 C.3     1  UNL1        0.1285
     19 H           5.8865    6.7598    3.1365 H       1  UNL1        0.0665
     20 C           6.8551    4.8527    3.3631 C.3     1  UNL1        0.1121
     21 H           5.8185    4.5165    3.4422 H       1  UNL1        0.0647
     22 O           7.5496    4.3414    4.5018 O.3     1  UNL1       -0.3865
     23 O           7.3886    6.9341    4.5250 O.3     1  UNL1       -0.3847
     24 N           7.3987    7.8921    1.3908 N.ar    1  UNL1       -0.2855
     25 C           6.8531    7.9980    0.1388 C.ar    1  UNL1        0.1004
     26 N           6.4673    9.2298   -0.1282 N.ar    1  UNL1       -0.2306
     27 C           6.8470    9.9638    0.9724 C.ar    1  UNL1        0.1473
     28 C           6.7115   11.3246    1.2931 C.ar    1  UNL1        0.1472
     29 N           6.0271   12.2250    0.4906 N.pl3   1  UNL1       -0.3413
     30 N           7.2752   11.7738    2.4373 N.ar    1  UNL1       -0.2188
     31 C           7.8832   10.8783    3.2476 C.ar    1  UNL1        0.1205
     32 N           7.9928    9.5364    3.0944 N.ar    1  UNL1       -0.2159
     33 C           7.4700    9.1571    1.9141 C.ar    1  UNL1        0.1674
     34 H1          4.2988   -1.2042    3.4117 H       1  UNL1        0.1190
     35 H2          4.3604   -0.1030    4.6228 H       1  UNL1        0.1190
     36 HXT         2.6770    1.1153    4.4651 H       1  UNL1        0.2951
     37 H           4.5930   -0.4405    0.9168 H       1  UNL1        0.0293
     38 H           6.0146    0.3628    1.5533 H       1  UNL1        0.0293
     39 H           3.7183    1.6930    0.0221 H       1  UNL1        0.0360
     40 H           5.3711    1.4140   -0.5321 H       1  UNL1        0.0360
     41 H           5.4461    5.2648   -0.2334 H       1  UNL1        0.0324
     42 H           3.9674    4.3765   -0.6721 H       1  UNL1        0.0324
     43 H           5.5474    3.8390   -1.3185 H       1  UNL1        0.0324
     44 H           7.4870    2.9268    0.4739 H       1  UNL1        0.0385
     45 H           7.0365    2.3140    2.0805 H       1  UNL1        0.0385
     46 H           7.5096    5.0529    5.1757 H       1  UNL1        0.2100
     47 H           7.5203    7.8958    4.3768 H       1  UNL1        0.2101
     48 H           6.7536    7.1574   -0.5303 H       1  UNL1        0.1030
     49 H           5.8861   11.9117   -0.4631 H       1  UNL1        0.1438
     50 H           6.2905   13.1875    0.6475 H       1  UNL1        0.1438
     51 H           8.3437   11.2984    4.1385 H       1  UNL1        0.1048
@<TRIPOS>BOND
     1     1    34    1
     2     1    35    1
     3     2     4    1
     4     2     7    1
     5     2     3    1
     6     2     1    1
     7     4     5    2
     8     4     6    1
     9     6    36    1
    10     7     8    1
    11     7    37    1
    12     7    38    1
    13     8    39    1
    14     8    40    1
    15     9    11    1
    16     9    12    1
    17     9    10    1
    18     9     8    1
    19    11    41    1
    20    11    42    1
    21    11    43    1
    22    12    13    1
    23    12    44    1
    24    12    45    1
    25    13    14    1
    26    13    15    1
    27    13    20    1
    28    15    16    1
    29    16    18    1
    30    16    24    1
    31    16    17    1
    32    18    19    1
    33    18    20    1
    34    18    23    1
    35    20    21    1
    36    20    22    1
    37    22    46    1
    38    23    47    1
    39    24    25   ar
    40    24    33   ar
    41    25    26   ar
    42    25    48    1
    43    26    27   ar
    44    27    28   ar
    45    27    33   ar
    46    28    29    1
    47    28    30   ar
    48    29    49    1
    49    29    50    1
    50    30    31   ar
    51    31    32   ar
    52    31    51    1
    53    32    33   ar
