REMARK  12 active torsions:
REMARK  status: ('A' for Active; 'I' for Inactive)
REMARK    1  A    between atoms: CA_2  and  N_1 
REMARK    2  A    between atoms: CA_2  and  C_3 
REMARK    3  A    between atoms: CA_2  and  C_6 
REMARK    4  A    between atoms: C_3  and  OXT_5 
REMARK    5  A    between atoms: C_6  and  C_7 
REMARK    6  A    between atoms: S_8  and  C_7 
REMARK    7  A    between atoms: S_8  and  C_11 
REMARK    8  A    between atoms: C_11  and  C_12 
REMARK    9  A    between atoms: C_14  and  N_19 
REMARK   10  A    between atoms: C_15  and  O_18 
REMARK   11  A    between atoms: C_16  and  O_17 
REMARK   12  A    between atoms: C_23  and  N_24 
ROOT
ATOM      1  C   UNL d   1       7.534   4.396   2.070  0.00  0.00     0.163 C 
ATOM      2  O   UNL d   1       7.596   5.537   1.201  0.00  0.00    -0.355 OA
ATOM      3  C   UNL d   1       7.784   6.671   2.075  0.00  0.00     0.262 C 
ATOM      4  C   UNL d   1       6.904   6.382   3.298  0.00  0.00     0.198 C 
ATOM      5  C   UNL d   1       6.855   4.853   3.363  0.00  0.00     0.180 C 
ENDROOT
BRANCH   1   6
ATOM      6  C   UNL d   1       6.942   3.160   1.393  0.00  0.00     0.086 C 
BRANCH   6   7
ATOM      7  S   UNL d   1       5.221   3.233   0.945  0.00  0.00    -0.264 SA
ATOM      8  C   UNL d   1       5.036   4.285  -0.465  0.00  0.00     0.066 C 
ATOM      9  H   UNL d   1       4.436   3.647   1.954  0.00  0.00     0.081 HD
BRANCH   7  10
ATOM     10  C   UNL d   1       4.758   1.618   0.353  0.00  0.00     0.054 C 
BRANCH  10  11
ATOM     11  C   UNL d   1       4.941   0.497   1.373  0.00  0.00     0.055 C 
BRANCH  11  12
ATOM     12  CA  UNL d   1       4.221   0.728   2.707  0.00  0.00     0.315 C 
BRANCH  12  13
ATOM     13  C   UNL d   1       2.686   0.673   2.565  0.00  0.00     0.173 C 
ATOM     14  O   UNL d   1       2.071   0.424   1.543  0.00  0.00    -0.648 OA
BRANCH  13  15
ATOM     15  OXT UNL d   1       2.053   0.916   3.743  0.00  0.00    -0.775 OA
ATOM     16  HXT UNL d   1       2.677   1.115   4.465  0.00  0.00     0.167 HD
ENDBRANCH  13  15
ENDBRANCH  12  13
BRANCH  12  17
ATOM     17  N   UNL d   1       4.676  -0.292   3.677  0.00  0.00     0.093 N 
ATOM     18  H1  UNL d   1       4.299  -1.204   3.412  0.00  0.00     0.314 HD
ATOM     19  H2  UNL d   1       4.360  -0.103   4.623  0.00  0.00     0.314 HD
ENDBRANCH  12  17
ENDBRANCH  11  12
ENDBRANCH  10  11
ENDBRANCH   7  10
ENDBRANCH   6   7
ENDBRANCH   1   6
BRANCH   5  20
ATOM     20  O   UNL d   1       7.550   4.341   4.502  0.00  0.00    -0.390 OA
ATOM     21  H   UNL d   1       7.510   5.053   5.176  0.00  0.00     0.210 HD
ENDBRANCH   5  20
BRANCH   3  22
ATOM     22  N   UNL d   1       7.399   7.892   1.391  0.00  0.00    -0.294 N 
ATOM     23  C   UNL d   1       6.853   7.998   0.139  0.00  0.00     0.214 A 
ATOM     24  N   UNL d   1       6.467   9.230  -0.128  0.00  0.00    -0.236 NA
ATOM     25  C   UNL d   1       6.847   9.964   0.972  0.00  0.00     0.149 A 
ATOM     26  C   UNL d   1       6.712  11.325   1.293  0.00  0.00     0.155 A 
ATOM     27  C   UNL d   1       7.470   9.157   1.914  0.00  0.00     0.167 A 
ATOM     28  N   UNL d   1       7.275  11.774   2.437  0.00  0.00    -0.222 NA
ATOM     29  C   UNL d   1       7.883  10.878   3.248  0.00  0.00     0.237 A 
ATOM     30  N   UNL d   1       7.993   9.536   3.094  0.00  0.00    -0.222 NA
BRANCH  26  31
ATOM     31  N   UNL d   1       6.027  12.225   0.491  0.00  0.00    -0.382 N 
ATOM     32  H   UNL d   1       5.886  11.912  -0.463  0.00  0.00     0.157 HD
ATOM     33  H   UNL d   1       6.290  13.188   0.647  0.00  0.00     0.157 HD
ENDBRANCH  26  31
ENDBRANCH   3  22
BRANCH   4  34
ATOM     34  O   UNL d   1       7.389   6.934   4.525  0.00  0.00    -0.388 OA
ATOM     35  H   UNL d   1       7.520   7.896   4.377  0.00  0.00     0.210 HD
ENDBRANCH   4  34
TORSDOF 12
