ligand.pdb
 OpenBabel03221817243D

 51 53  0  0  1  0  0  0  0  0999 V2000
    4.6758   -0.2919    3.6769 N   0  0  0  0  0  0  0  0  0  0  0  0
    4.2209    0.7283    2.7072 C   0  0  2  0  0  0  0  0  0  0  0  0
    4.4866    1.7107    3.1089 H   0  0  0  0  0  0  0  0  0  0  0  0
    2.6864    0.6733    2.5650 C   0  0  0  0  0  0  0  0  0  0  0  0
    2.0709    0.4241    1.5426 O   0  0  0  0  0  0  0  0  0  0  0  0
    2.0531    0.9158    3.7431 O   0  0  0  0  0  0  0  0  0  0  0  0
    4.9406    0.4969    1.3726 C   0  0  0  0  0  0  0  0  0  0  0  0
    4.7582    1.6184    0.3527 C   0  0  0  0  0  0  0  0  0  0  0  0
    5.2207    3.2327    0.9450 S   0  0  2  0  0  0  0  0  0  0  0  0
    4.4363    3.6465    1.9545 H   0  0  0  0  0  0  0  0  0  0  0  0
    5.0361    4.2854   -0.4645 C   0  0  0  0  0  0  0  0  0  0  0  0
    6.9418    3.1604    1.3935 C   0  0  0  0  0  0  0  0  0  0  0  0
    7.5339    4.3955    2.0703 C   0  0  1  0  0  0  0  0  0  0  0  0
    8.5785    4.1380    2.2967 H   0  0  0  0  0  0  0  0  0  0  0  0
    7.5964    5.5368    1.2006 O   0  0  0  0  0  0  0  0  0  0  0  0
    7.7836    6.6713    2.0750 C   0  0  2  0  0  0  0  0  0  0  0  0
    8.8464    6.7592    2.3312 H   0  0  0  0  0  0  0  0  0  0  0  0
    6.9037    6.3821    3.2977 C   0  0  1  0  0  0  0  0  0  0  0  0
    5.8865    6.7598    3.1365 H   0  0  0  0  0  0  0  0  0  0  0  0
    6.8551    4.8527    3.3631 C   0  0  2  0  0  0  0  0  0  0  0  0
    5.8185    4.5165    3.4422 H   0  0  0  0  0  0  0  0  0  0  0  0
    7.5496    4.3414    4.5018 O   0  0  0  0  0  0  0  0  0  0  0  0
    7.3886    6.9341    4.5250 O   0  0  0  0  0  0  0  0  0  0  0  0
    7.3987    7.8921    1.3908 N   0  0  0  0  0  0  0  0  0  0  0  0
    6.8531    7.9980    0.1388 C   0  0  0  0  0  0  0  0  0  0  0  0
    6.4673    9.2298   -0.1282 N   0  0  0  0  0  0  0  0  0  0  0  0
    6.8470    9.9638    0.9724 C   0  0  0  0  0  0  0  0  0  0  0  0
    6.7115   11.3246    1.2931 C   0  0  0  0  0  0  0  0  0  0  0  0
    6.0271   12.2250    0.4906 N   0  0  0  0  0  0  0  0  0  0  0  0
    7.2752   11.7738    2.4373 N   0  0  0  0  0  0  0  0  0  0  0  0
    7.8832   10.8783    3.2476 C   0  0  0  0  0  0  0  0  0  0  0  0
    7.9928    9.5364    3.0944 N   0  0  0  0  0  0  0  0  0  0  0  0
    7.4700    9.1571    1.9141 C   0  0  0  0  0  0  0  0  0  0  0  0
    4.2988   -1.2042    3.4117 H   0  0  0  0  0  0  0  0  0  0  0  0
    4.3604   -0.1030    4.6228 H   0  0  0  0  0  0  0  0  0  0  0  0
    2.6770    1.1153    4.4651 H   0  0  0  0  0  0  0  0  0  0  0  0
    4.5930   -0.4405    0.9168 H   0  0  0  0  0  0  0  0  0  0  0  0
    6.0146    0.3628    1.5533 H   0  0  0  0  0  0  0  0  0  0  0  0
    3.7183    1.6930    0.0221 H   0  0  0  0  0  0  0  0  0  0  0  0
    5.3711    1.4140   -0.5321 H   0  0  0  0  0  0  0  0  0  0  0  0
    5.4461    5.2648   -0.2334 H   0  0  0  0  0  0  0  0  0  0  0  0
    3.9674    4.3765   -0.6721 H   0  0  0  0  0  0  0  0  0  0  0  0
    5.5474    3.8390   -1.3185 H   0  0  0  0  0  0  0  0  0  0  0  0
    7.4870    2.9268    0.4739 H   0  0  0  0  0  0  0  0  0  0  0  0
    7.0365    2.3140    2.0805 H   0  0  0  0  0  0  0  0  0  0  0  0
    7.5096    5.0529    5.1757 H   0  0  0  0  0  0  0  0  0  0  0  0
    7.5203    7.8958    4.3768 H   0  0  0  0  0  0  0  0  0  0  0  0
    6.7536    7.1574   -0.5303 H   0  0  0  0  0  0  0  0  0  0  0  0
    5.8861   11.9117   -0.4631 H   0  0  0  0  0  0  0  0  0  0  0  0
    6.2905   13.1875    0.6475 H   0  0  0  0  0  0  0  0  0  0  0  0
    8.3437   11.2984    4.1385 H   0  0  0  0  0  0  0  0  0  0  0  0
  1 34  1  0  0  0  0
  1 35  1  0  0  0  0
  2  4  1  0  0  0  0
  2  7  1  0  0  0  0
  2  3  1  1  0  0  0
  2  1  1  0  0  0  0
  4  5  2  0  0  0  0
  4  6  1  0  0  0  0
  6 36  1  0  0  0  0
  7  8  1  0  0  0  0
  7 37  1  0  0  0  0
  7 38  1  0  0  0  0
  8 39  1  0  0  0  0
  8 40  1  0  0  0  0
  9 11  1  0  0  0  0
  9 12  1  0  0  0  0
  9 10  1  1  0  0  0
  9  8  1  0  0  0  0
 11 41  1  0  0  0  0
 11 42  1  0  0  0  0
 11 43  1  0  0  0  0
 12 13  1  0  0  0  0
 12 44  1  0  0  0  0
 12 45  1  0  0  0  0
 13 14  1  0  0  0  0
 13 15  1  0  0  0  0
 13 20  1  1  0  0  0
 15 16  1  0  0  0  0
 16 18  1  1  0  0  0
 16 24  1  0  0  0  0
 16 17  1  0  0  0  0
 18 19  1  0  0  0  0
 18 20  1  1  0  0  0
 18 23  1  0  0  0  0
 20 21  1  1  0  0  0
 20 22  1  0  0  0  0
 22 46  1  0  0  0  0
 23 47  1  0  0  0  0
 24 25  1  0  0  0  0
 24 33  1  0  0  0  0
 25 26  2  0  0  0  0
 25 48  1  0  0  0  0
 26 27  1  0  0  0  0
 27 28  2  0  0  0  0
 27 33  1  0  0  0  0
 28 29  1  0  0  0  0
 28 30  1  0  0  0  0
 29 49  1  0  0  0  0
 29 50  1  0  0  0  0
 30 31  2  0  0  0  0
 31 32  1  0  0  0  0
 31 51  1  0  0  0  0
 32 33  2  0  0  0  0
M  END
$$$$
