REMARK  23 active torsions:
REMARK  status: ('A' for Active; 'I' for Inactive)
REMARK    1  A    between atoms: O_10  and  C_1 
REMARK    2  A    between atoms: N_9  and  C_2 
REMARK    3  A    between atoms: C_6  and  C_5 
REMARK    4  A    between atoms: N_7  and  C_6 
REMARK    5  A    between atoms: C_11  and  O_10 
REMARK    6  A    between atoms: O_28  and  C_12 
REMARK    7  A    between atoms: O_27  and  C_13 
REMARK    8  A    between atoms: N_18  and  C_14 
REMARK    9  A    between atoms: N_17  and  C_16 
REMARK       I    between atoms: C_19  and  N_18 
REMARK   10  A    between atoms: C_21  and  C_19 
REMARK   11  A    between atoms: C_22  and  C_21 
REMARK   12  A    between atoms: O_26  and  C_21 
REMARK   13  A    between atoms: C_23  and  C_22 
REMARK   14  A    between atoms: N_24  and  C_23 
REMARK   15  A    between atoms: C_29  and  O_28 
REMARK   16  A    between atoms: O_46  and  C_30 
REMARK   17  A    between atoms: O_36  and  C_31 
REMARK   18  A    between atoms: C_33  and  C_32 
REMARK   19  A    between atoms: O_34  and  C_33 
REMARK   20  A    between atoms: C_37  and  O_36 
REMARK   21  A    between atoms: N_45  and  C_38 
REMARK   22  A    between atoms: C_42  and  C_41 
REMARK   23  A    between atoms: N_43  and  C_42 
ROOT
ATOM      1  C   UNL d   1      -2.673  -0.252   0.973  0.00  0.00     0.189 C 
ATOM      2  C   UNL d   1      -2.194   0.456  -0.316  0.00  0.00     0.186 C 
ATOM      3  C   UNL d   1      -1.902  -0.541  -1.473  0.00  0.00     0.172 C 
ATOM      4  C   UNL d   1      -2.265  -2.008  -1.179  0.00  0.00     0.118 C 
ATOM      5  C   UNL d   1      -1.695  -2.464   0.172  0.00  0.00     0.066 C 
ATOM      6  C   UNL d   1      -1.741  -1.428   1.315  0.00  0.00     0.251 C 
ENDROOT
BRANCH   2   7
ATOM      7  O   UNL d   1      -3.204   1.355  -0.783  0.00  0.00    -0.348 OA
BRANCH   7   8
ATOM      8  C   UNL d   1      -2.798   2.711  -1.006  0.00  0.00     0.292 C 
ATOM      9  C   UNL d   1      -1.536   2.937  -1.853  0.00  0.00     0.205 C 
ATOM     10  C   UNL d   1      -2.099   2.803  -3.255  0.00  0.00     0.189 C 
ATOM     11  C   UNL d   1      -3.394   3.592  -3.105  0.00  0.00     0.180 C 
ATOM     12  O   UNL d   1      -3.854   3.360  -1.758  0.00  0.00    -0.348 OA
BRANCH   9  13
ATOM     13  O   UNL d   1      -1.093   4.279  -1.642  0.00  0.00    -0.388 OA
ATOM     14  H   UNL d   1      -0.161   4.325  -1.911  0.00  0.00     0.210 HD
ENDBRANCH   9  13
BRANCH  10  15
ATOM     15  O   UNL d   1      -1.335   3.393  -4.284  0.00  0.00    -0.348 OA
BRANCH  15  16
ATOM     16  C   UNL d   1      -0.397   2.585  -4.991  0.00  0.00     0.293 C 
ATOM     17  C   UNL d   1      -0.984   1.727  -6.144  0.00  0.00     0.272 C 
ATOM     18  C   UNL d   1       0.162   1.048  -6.913  0.00  0.00     0.043 C 
ATOM     19  C   UNL d   1       1.148   0.358  -5.960  0.00  0.00     0.036 C 
ATOM     20  C   UNL d   1       1.622   1.362  -4.902  0.00  0.00     0.152 C 
ATOM     21  O   UNL d   1       0.461   1.795  -4.162  0.00  0.00    -0.352 OA
BRANCH  17  22
ATOM     22  N   UNL d   1      -1.891   0.668  -5.698  0.00  0.00     0.087 N 
ATOM     23  H   UNL d   1      -1.444   0.111  -4.969  0.00  0.00     0.313 HD
ATOM     24  H   UNL d   1      -2.718   1.081  -5.280  0.00  0.00     0.313 HD
ENDBRANCH  17  22
BRANCH  20  25
ATOM     25  C   UNL d   1       2.610   0.732  -3.925  0.00  0.00     0.298 C 
BRANCH  25  26
ATOM     26  N   UNL d   1       3.265   1.777  -3.144  0.00  0.00     0.080 N 
ATOM     27  H   UNL d   1       4.003   1.364  -2.576  0.00  0.00     0.312 HD
ATOM     28  H   UNL d   1       2.592   2.179  -2.492  0.00  0.00     0.312 HD
ENDBRANCH  25  26
ENDBRANCH  20  25
ENDBRANCH  15  16
ENDBRANCH  10  15
BRANCH  11  29
ATOM     29  C   UNL d   1      -4.457   3.234  -4.130  0.00  0.00     0.198 C 
BRANCH  29  30
ATOM     30  O   UNL d   1      -4.157   3.883  -5.362  0.00  0.00    -0.398 OA
ATOM     31  H   UNL d   1      -4.786   3.554  -6.027  0.00  0.00     0.209 HD
ENDBRANCH  29  30
ENDBRANCH  11  29
ENDBRANCH   7   8
ENDBRANCH   2   7
BRANCH   1  32
ATOM     32  O   UNL d   1      -2.893   0.628   2.083  0.00  0.00    -0.349 OA
BRANCH  32  33
ATOM     33  C   UNL d   1      -1.822   1.411   2.623  0.00  0.00     0.293 C 
ATOM     34  C   UNL d   1      -1.528   0.990   4.096  0.00  0.00     0.272 C 
ATOM     35  C   UNL d   1      -1.043   2.143   4.979  0.00  0.00     0.043 C 
ATOM     36  C   UNL d   1      -0.366   3.193   4.120  0.00  0.00     0.036 C 
ATOM     37  C   UNL d   1      -1.430   3.777   3.192  0.00  0.00     0.152 C 
ATOM     38  O   UNL d   1      -2.194   2.785   2.495  0.00  0.00    -0.352 OA
BRANCH  34  39
ATOM     39  N   UNL d   1      -2.642   0.285   4.741  0.00  0.00     0.087 N 
ATOM     40  H   UNL d   1      -2.285  -0.522   5.254  0.00  0.00     0.313 HD
ATOM     41  H   UNL d   1      -3.096   0.880   5.431  0.00  0.00     0.313 HD
ENDBRANCH  34  39
BRANCH  37  42
ATOM     42  C   UNL d   1      -0.824   4.764   2.194  0.00  0.00     0.298 C 
BRANCH  42  43
ATOM     43  N   UNL d   1      -1.873   5.573   1.578  0.00  0.00     0.080 N 
ATOM     44  H   UNL d   1      -1.702   6.560   1.768  0.00  0.00     0.312 HD
ATOM     45  H   UNL d   1      -1.833   5.471   0.565  0.00  0.00     0.312 HD
ENDBRANCH  42  43
ENDBRANCH  37  42
ENDBRANCH  32  33
ENDBRANCH   1  32
BRANCH   3  46
ATOM     46  O   UNL d   1      -0.499  -0.504  -1.754  0.00  0.00    -0.391 OA
ATOM     47  H   UNL d   1      -0.359  -1.026  -2.563  0.00  0.00     0.210 HD
ENDBRANCH   3  46
BRANCH   6  48
ATOM     48  N   UNL d   1      -2.147  -2.087   2.561  0.00  0.00     0.085 N 
ATOM     49  H   UNL d   1      -1.617  -1.690   3.334  0.00  0.00     0.313 HD
ATOM     50  H   UNL d   1      -1.881  -3.072   2.552  0.00  0.00     0.313 HD
ENDBRANCH   6  48
BRANCH   4  51
ATOM     51  N   UNL d   1      -3.700  -2.245  -1.369  0.00  0.00    -0.352 N 
ATOM     52  C   UNL d   1      -4.349  -3.438  -1.074  0.00  0.00     0.249 C 
ATOM     53  O   UNL d   1      -5.271  -3.494  -0.271  0.00  0.00    -0.271 OA
ATOM     54  H   UNL d   1      -4.294  -1.432  -1.488  0.00  0.00     0.163 HD
BRANCH  52  55
ATOM     55  C   UNL d   1      -3.800  -4.672  -1.799  0.00  0.00     0.245 C 
BRANCH  55  56
ATOM     56  C   UNL d   1      -4.865  -5.677  -2.277  0.00  0.00     0.235 C 
ATOM     57  F   UNL d   1      -5.960  -5.613  -1.465  0.00  0.00    -0.244 F 
BRANCH  56  58
ATOM     58  C   UNL d   1      -4.428  -7.149  -2.299  0.00  0.00     0.306 C 
BRANCH  58  59
ATOM     59  N   UNL d   1      -3.243  -7.398  -3.111  0.00  0.00     0.081 N 
ATOM     60  H   UNL d   1      -3.270  -6.837  -3.960  0.00  0.00     0.312 HD
ATOM     61  H   UNL d   1      -2.410  -7.113  -2.598  0.00  0.00     0.312 HD
ENDBRANCH  58  59
ENDBRANCH  56  58
ENDBRANCH  55  56
BRANCH  55  62
ATOM     62  O   UNL d   1      -2.915  -5.287  -0.872  0.00  0.00    -0.383 OA
ATOM     63  H   UNL d   1      -3.434  -5.558  -0.096  0.00  0.00     0.210 HD
ENDBRANCH  55  62
ENDBRANCH  52  55
ENDBRANCH   4  51
TORSDOF 23
