@<TRIPOS>MOLECULE
3WRU_SJP_A_101
 98 101 0 0 0
SMALL
GASTEIGER

@<TRIPOS>ATOM
      1 C          -1.8216    1.4105    2.6235 C.3     1  UNL1        0.1750
      2 H          -0.9085    1.2598    2.0345 H       1  UNL1        0.0926
      3 C          -1.5276    0.9900    4.0964 C.3     1  UNL1        0.0566
      4 H          -0.7068    0.2622    4.0417 H       1  UNL1        0.0508
      5 C          -1.0427    2.1426    4.9791 C.3     1  UNL1       -0.0307
      6 C          -0.3660    3.1929    4.1198 C.3     1  UNL1       -0.0237
      7 C          -1.4302    3.7770    3.1915 C.3     1  UNL1        0.0740
      8 H          -2.1555    4.3100    3.8187 H       1  UNL1        0.0609
      9 C          -0.8244    4.7642    2.1941 C.3     1  UNL1        0.0196
     10 N          -1.8725    5.5728    1.5779 N.3     1  UNL1       -0.3277
     11 O          -2.1938    2.7847    2.4946 O.3     1  UNL1       -0.3453
     12 N          -2.6420    0.2854    4.7406 N.3     1  UNL1       -0.3232
     13 O          -2.8927    0.6276    2.0831 O.3     1  UNL1       -0.3423
     14 C          -2.6734   -0.2520    0.9733 C.3     1  UNL1        0.1055
     15 H          -3.6769   -0.6537    0.7867 H       1  UNL1        0.0639
     16 C          -2.1943    0.4559   -0.3161 C.3     1  UNL1        0.1169
     17 H          -1.2955    1.0258   -0.0704 H       1  UNL1        0.0650
     18 C          -1.9019   -0.5414   -1.4732 C.3     1  UNL1        0.1022
     19 H          -2.4047   -0.2133   -2.3896 H       1  UNL1        0.0639
     20 C          -2.2653   -2.0077   -1.1789 C.3     1  UNL1        0.0531
     21 H          -1.7913   -2.6310   -1.9467 H       1  UNL1        0.0525
     22 C          -1.6949   -2.4639    0.1725 C.3     1  UNL1       -0.0143
     23 C          -1.7409   -1.4276    1.3149 C.3     1  UNL1        0.0358
     24 H          -0.7232   -1.0428    1.4633 H       1  UNL1        0.0485
     25 N          -2.1467   -2.0875    2.5608 N.3     1  UNL1       -0.3250
     26 N          -3.7005   -2.2454   -1.3690 N.am    1  UNL1       -0.3076
     27 C          -4.3493   -3.4382   -1.0742 C.2     1  UNL1        0.2449
     28 O          -5.2712   -3.4944   -0.2706 O.2     1  UNL1       -0.2729
     29 C          -3.8004   -4.6724   -1.7992 C.3     1  UNL1        0.1627
     30 H          -3.2120   -4.3539   -2.6678 H       1  UNL1        0.0720
     31 C          -4.8650   -5.6768   -2.2770 C.3     1  UNL1        0.1473
     32 H          -5.2068   -5.3914   -3.2781 H       1  UNL1        0.0695
     33 C          -4.4275   -7.1487   -2.2989 C.3     1  UNL1        0.0274
     34 N          -3.2433   -7.3984   -3.1113 N.3     1  UNL1       -0.3273
     35 F          -5.9604   -5.6133   -1.4654 F       1  UNL1       -0.2410
     36 O          -2.9151   -5.2866   -0.8723 O.3     1  UNL1       -0.3796
     37 O          -0.4995   -0.5044   -1.7544 O.3     1  UNL1       -0.3873
     38 O          -3.2035    1.3547   -0.7830 O.3     1  UNL1       -0.3402
     39 C          -2.7982    2.7114   -1.0065 C.3     1  UNL1        0.1884
     40 H          -2.7334    3.2109   -0.0375 H       1  UNL1        0.0938
     41 C          -1.5355    2.9370   -1.8534 C.3     1  UNL1        0.1345
     42 H          -0.7068    2.2481   -1.6643 H       1  UNL1        0.0671
     43 C          -2.0989    2.8026   -3.2546 C.3     1  UNL1        0.1205
     44 H          -2.2926    1.7517   -3.4521 H       1  UNL1        0.0651
     45 C          -3.3942    3.5916   -3.1049 C.3     1  UNL1        0.1135
     46 H          -3.1904    4.6674   -3.1722 H       1  UNL1        0.0647
     47 C          -4.4569    3.2337   -4.1295 C.3     1  UNL1        0.0730
     48 O          -4.1574    3.8830   -5.3615 O.3     1  UNL1       -0.3924
     49 O          -3.8544    3.3603   -1.7582 O.3     1  UNL1       -0.3405
     50 O          -1.3355    3.3935   -4.2838 O.3     1  UNL1       -0.3411
     51 C          -0.3972    2.5850   -4.9914 C.3     1  UNL1        0.1750
     52 H           0.2252    3.3516   -5.4653 H       1  UNL1        0.0926
     53 C          -0.9843    1.7269   -6.1444 C.3     1  UNL1        0.0566
     54 H          -1.5531    2.3740   -6.8201 H       1  UNL1        0.0508
     55 C           0.1620    1.0477   -6.9131 C.3     1  UNL1       -0.0307
     56 C           1.1484    0.3582   -5.9600 C.3     1  UNL1       -0.0237
     57 C           1.6222    1.3621   -4.9018 C.3     1  UNL1        0.0740
     58 H           2.0855    2.2311   -5.3907 H       1  UNL1        0.0609
     59 C           2.6098    0.7324   -3.9252 C.3     1  UNL1        0.0196
     60 N           3.2650    1.7772   -3.1438 N.3     1  UNL1       -0.3277
     61 O           0.4612    1.7947   -4.1624 O.3     1  UNL1       -0.3453
     62 N          -1.8906    0.6682   -5.6980 N.3     1  UNL1       -0.3232
     63 O          -1.0929    4.2788   -1.6422 O.3     1  UNL1       -0.3841
     64 H          -1.8782    2.6156    5.5154 H       1  UNL1        0.0283
     65 H          -0.3534    1.7714    5.7484 H       1  UNL1        0.0283
     66 H           0.4620    2.7587    3.5482 H       1  UNL1        0.0291
     67 H           0.0508    3.9842    4.7559 H       1  UNL1        0.0291
     68 H          -0.1230    5.4317    2.7071 H       1  UNL1        0.0447
     69 H          -0.2641    4.2329    1.4179 H       1  UNL1        0.0447
     70 H          -1.7019    6.5596    1.7676 H       1  UNL1        0.1183
     71 H          -1.8331    5.4708    0.5648 H       1  UNL1        0.1183
     72 H          -2.2846   -0.5218    5.2541 H       1  UNL1        0.1186
     73 H          -3.0963    0.8800    5.4313 H       1  UNL1        0.1186
     74 H          -2.1559   -3.4053    0.4800 H       1  UNL1        0.0300
     75 H          -0.6337   -2.7103    0.0108 H       1  UNL1        0.0300
     76 H          -1.6168   -1.6896    3.3337 H       1  UNL1        0.1185
     77 H          -1.8807   -3.0721    2.5520 H       1  UNL1        0.1185
     78 H          -4.2939   -1.4322   -1.4875 H       1  UNL1        0.1491
     79 H          -4.2495   -7.5074   -1.2780 H       1  UNL1        0.0451
     80 H          -5.2474   -7.7565   -2.6983 H       1  UNL1        0.0451
     81 H          -3.2701   -6.8366   -3.9599 H       1  UNL1        0.1183
     82 H          -2.4104   -7.1129   -2.5981 H       1  UNL1        0.1183
     83 H          -3.4339   -5.5576   -0.0955 H       1  UNL1        0.2106
     84 H          -0.3592   -1.0262   -2.5632 H       1  UNL1        0.2100
     85 H          -4.5086    2.1568   -4.3099 H       1  UNL1        0.0584
     86 H          -5.4413    3.5826   -3.8096 H       1  UNL1        0.0584
     87 H          -4.7857    3.5540   -6.0273 H       1  UNL1        0.2095
     88 H           0.7024    1.8061   -7.4914 H       1  UNL1        0.0283
     89 H          -0.2228    0.3211   -7.6411 H       1  UNL1        0.0283
     90 H           1.9951   -0.0329   -6.5361 H       1  UNL1        0.0291
     91 H           0.6756   -0.5039   -5.4748 H       1  UNL1        0.0291
     92 H           2.1095    0.0263   -3.2538 H       1  UNL1        0.0447
     93 H           3.3792    0.1779   -4.4712 H       1  UNL1        0.0447
     94 H           4.0029    1.3640   -2.5763 H       1  UNL1        0.1183
     95 H           2.5920    2.1787   -2.4917 H       1  UNL1        0.1183
     96 H          -1.4437    0.1112   -4.9690 H       1  UNL1        0.1186
     97 H          -2.7179    1.0811   -5.2800 H       1  UNL1        0.1186
     98 H          -0.1606    4.3251   -1.9115 H       1  UNL1        0.2101
@<TRIPOS>BOND
     1     1     2    1
     2     3     1    1
     3     3     4    1
     4     5     3    1
     5     6     5    1
     6     7     6    1
     7     7     8    1
     8     9     7    1
     9    10     9    1
    10    11     7    1
    11    11     1    1
    12    12     3    1
    13    13     1    1
    14    14    13    1
    15    14    15    1
    16    16    14    1
    17    16    17    1
    18    18    16    1
    19    18    19    1
    20    20    18    1
    21    20    21    1
    22    22    20    1
    23    23    22    1
    24    23    24    1
    25    23    14    1
    26    25    23    1
    27    26    20    1
    28    27    26   am
    29    28    27    2
    30    29    27    1
    31    29    30    1
    32    31    29    1
    33    31    32    1
    34    33    31    1
    35    34    33    1
    36    35    31    1
    37    36    29    1
    38    37    18    1
    39    38    16    1
    40    39    38    1
    41    39    40    1
    42    41    39    1
    43    41    42    1
    44    43    41    1
    45    43    44    1
    46    45    43    1
    47    45    46    1
    48    47    45    1
    49    48    47    1
    50    49    45    1
    51    49    39    1
    52    50    43    1
    53    51    50    1
    54    51    52    1
    55    53    51    1
    56    53    54    1
    57    55    53    1
    58    56    55    1
    59    57    56    1
    60    57    58    1
    61    59    57    1
    62    60    59    1
    63    61    57    1
    64    61    51    1
    65    62    53    1
    66    63    41    1
    67     5    64    1
    68     5    65    1
    69     6    66    1
    70     6    67    1
    71     9    68    1
    72     9    69    1
    73    10    70    1
    74    10    71    1
    75    12    72    1
    76    12    73    1
    77    22    74    1
    78    22    75    1
    79    25    76    1
    80    25    77    1
    81    26    78    1
    82    33    79    1
    83    33    80    1
    84    34    81    1
    85    34    82    1
    86    36    83    1
    87    37    84    1
    88    47    85    1
    89    47    86    1
    90    48    87    1
    91    55    88    1
    92    55    89    1
    93    56    90    1
    94    56    91    1
    95    59    92    1
    96    59    93    1
    97    60    94    1
    98    60    95    1
    99    62    96    1
   100    62    97    1
   101    63    98    1
