REMARK  10 active torsions:
REMARK  status: ('A' for Active; 'I' for Inactive)
REMARK    1  A    between atoms: C_1  and  O_12 
REMARK    2  A    between atoms: C_2  and  N_11 
REMARK    3  A    between atoms: C_3  and  O_10 
REMARK    4  A    between atoms: C_5  and  C_6 
REMARK    5  A    between atoms: C_6  and  N_7 
REMARK    6  A    between atoms: O_12  and  C_13 
REMARK    7  A    between atoms: C_14  and  O_22 
REMARK    8  A    between atoms: C_15  and  O_21 
REMARK    9  A    between atoms: C_16  and  N_20 
REMARK   10  A    between atoms: C_18  and  N_19 
ROOT
ATOM      1  O   UNL d   1       1.367   2.224   0.360  0.00  0.00    -0.349 OA
ENDROOT
BRANCH   1   2
ATOM      2  C   UNL d   1       0.492   1.172  -0.094  0.00  0.00     0.296 C 
ATOM      3  C   UNL d   1       0.135   1.408  -1.602  0.00  0.00     0.303 C 
ATOM      4  C   UNL d   1      -0.821   0.287  -2.074  0.00  0.00     0.192 C 
ATOM      5  C   UNL d   1      -2.011   0.154  -1.116  0.00  0.00     0.231 C 
ATOM      6  F   UNL d   1      -2.798  -0.894  -1.471  0.00  0.00    -0.244 F 
ATOM      7  C   UNL d   1      -1.590   0.030   0.350  0.00  0.00     0.189 C 
ATOM      8  O   UNL d   1      -0.678   1.084   0.718  0.00  0.00    -0.349 OA
BRANCH   3   9
ATOM      9  N   UNL d   1      -0.424   2.752  -1.861  0.00  0.00     0.090 N 
ATOM     10  H   UNL d   1      -1.187   2.958  -1.216  0.00  0.00     0.313 HD
ATOM     11  H   UNL d   1      -0.782   2.825  -2.812  0.00  0.00     0.313 HD
ENDBRANCH   3   9
BRANCH   4  12
ATOM     12  O   UNL d   1      -0.149  -0.969  -2.236  0.00  0.00    -0.390 OA
ATOM     13  H   UNL d   1       0.739  -0.958  -1.842  0.00  0.00     0.210 HD
ENDBRANCH   4  12
BRANCH   7  14
ATOM     14  C   UNL d   1      -1.072  -1.379   0.724  0.00  0.00     0.301 C 
BRANCH  14  15
ATOM     15  N   UNL d   1      -0.693  -1.489   2.138  0.00  0.00     0.080 N 
ATOM     16  H   UNL d   1      -1.492  -1.248   2.724  0.00  0.00     0.312 HD
ATOM     17  H   UNL d   1       0.016  -0.791   2.355  0.00  0.00     0.312 HD
ENDBRANCH  14  15
ENDBRANCH   7  14
ENDBRANCH   1   2
BRANCH   1  18
ATOM     18  C   UNL d   1       1.744   2.133   1.751  0.00  0.00     0.189 C 
ATOM     19  C   UNL d   1       2.582   0.865   2.046  0.00  0.00     0.180 C 
ATOM     20  C   UNL d   1       3.906   0.903   1.250  0.00  0.00     0.182 C 
ATOM     21  C   UNL d   1       4.761   2.133   1.646  0.00  0.00     0.251 C 
ATOM     22  C   UNL d   1       3.953   3.439   1.507  0.00  0.00     0.076 C 
ATOM     23  C   UNL d   1       2.540   3.421   2.130  0.00  0.00     0.251 C 
BRANCH  19  24
ATOM     24  O   UNL d   1       2.840   0.703   3.448  0.00  0.00    -0.390 OA
ATOM     25  H   UNL d   1       2.144   1.188   3.936  0.00  0.00     0.210 HD
ENDBRANCH  19  24
BRANCH  20  26
ATOM     26  O   UNL d   1       3.665   0.892  -0.168  0.00  0.00    -0.391 OA
ATOM     27  H   UNL d   1       3.160   1.704  -0.398  0.00  0.00     0.210 HD
ENDBRANCH  20  26
BRANCH  21  28
ATOM     28  N   UNL d   1       5.317   1.993   3.006  0.00  0.00     0.085 N 
ATOM     29  H   UNL d   1       6.072   1.303   2.967  0.00  0.00     0.313 HD
ATOM     30  H   UNL d   1       4.616   1.511   3.587  0.00  0.00     0.313 HD
ENDBRANCH  21  28
BRANCH  23  31
ATOM     31  N   UNL d   1       2.616   3.610   3.593  0.00  0.00     0.085 N 
ATOM     32  H   UNL d   1       2.896   4.578   3.770  0.00  0.00     0.313 HD
ATOM     33  H   UNL d   1       3.421   3.080   3.943  0.00  0.00     0.313 HD
ENDBRANCH  23  31
ENDBRANCH   1  18
TORSDOF 10
