@<TRIPOS>MOLECULE
5BWS_V71_B_100
 47 48 0 0 0
SMALL
GASTEIGER

@<TRIPOS>ATOM
      1 C           0.4918    1.1724   -0.0944 C.3     1  UNL1        0.1776
      2 H           1.0447    0.2322   -0.0369 H       1  UNL1        0.0927
      3 C           0.1351    1.4079   -1.6022 C.3     1  UNL1        0.0856
      4 H           1.0708    1.3534   -2.1723 H       1  UNL1        0.0535
      5 C          -0.8208    0.2867   -2.0738 C.3     1  UNL1        0.1084
      6 H          -1.2089    0.5240   -3.0717 H       1  UNL1        0.0640
      7 C          -2.0106    0.1545   -1.1164 C.3     1  UNL1        0.1555
      8 H          -2.6251    1.0569   -1.2146 H       1  UNL1        0.0705
      9 C          -1.5898    0.0298    0.3499 C.3     1  UNL1        0.1073
     10 H          -2.4888    0.1954    0.9570 H       1  UNL1        0.0639
     11 C          -1.0718   -1.3788    0.7235 C.3     1  UNL1        0.0225
     12 N          -0.6928   -1.4892    2.1377 N.3     1  UNL1       -0.3276
     13 O          -0.6784    1.0836    0.7182 O.3     1  UNL1       -0.3422
     14 F          -2.7976   -0.8939   -1.4711 F       1  UNL1       -0.2400
     15 O          -0.1491   -0.9689   -2.2365 O.3     1  UNL1       -0.3871
     16 N          -0.4241    2.7523   -1.8610 N.3     1  UNL1       -0.3211
     17 O           1.3666    2.2241    0.3600 O.3     1  UNL1       -0.3422
     18 C           1.7440    2.1329    1.7506 C.3     1  UNL1        0.1051
     19 H           0.8281    2.1274    2.3555 H       1  UNL1        0.0639
     20 C           2.5817    0.8652    2.0457 C.3     1  UNL1        0.1101
     21 H           2.0295   -0.0255    1.7403 H       1  UNL1        0.0646
     22 C           3.9060    0.9031    1.2498 C.3     1  UNL1        0.0986
     23 H           4.4771   -0.0071    1.4675 H       1  UNL1        0.0635
     24 C           4.7615    2.1334    1.6463 C.3     1  UNL1        0.0351
     25 H           5.6102    2.2084    0.9552 H       1  UNL1        0.0485
     26 C           3.9525    3.4391    1.5070 C.3     1  UNL1       -0.0175
     27 C           2.5401    3.4206    2.1302 C.3     1  UNL1        0.0355
     28 H           1.9948    4.2843    1.7272 H       1  UNL1        0.0485
     29 N           2.6156    3.6095    3.5927 N.3     1  UNL1       -0.3250
     30 N           5.3167    1.9928    3.0061 N.3     1  UNL1       -0.3250
     31 O           3.6647    0.8925   -0.1682 O.3     1  UNL1       -0.3876
     32 O           2.8396    0.7026    3.4484 O.3     1  UNL1       -0.3866
     33 H          -1.8474   -2.1249    0.5145 H       1  UNL1        0.0448
     34 H          -0.1933   -1.6582    0.1391 H       1  UNL1        0.0448
     35 H          -1.4923   -1.2475    2.7239 H       1  UNL1        0.1183
     36 H           0.0158   -0.7911    2.3554 H       1  UNL1        0.1183
     37 H           0.7389   -0.9578   -1.8416 H       1  UNL1        0.2100
     38 H          -1.1868    2.9583   -1.2165 H       1  UNL1        0.1187
     39 H          -0.7817    2.8247   -2.8122 H       1  UNL1        0.1187
     40 H           3.8452    3.6616    0.4372 H       1  UNL1        0.0297
     41 H           4.5329    4.2795    1.9132 H       1  UNL1        0.0297
     42 H           2.8957    4.5783    3.7698 H       1  UNL1        0.1185
     43 H           3.4215    3.0802    3.9429 H       1  UNL1        0.1185
     44 H           6.0724    1.3031    2.9668 H       1  UNL1        0.1185
     45 H           4.6158    1.5107    3.5869 H       1  UNL1        0.1185
     46 H           3.1604    1.7044   -0.3981 H       1  UNL1        0.2100
     47 H           2.1439    1.1885    3.9355 H       1  UNL1        0.2100
@<TRIPOS>BOND
     1     1     3    1
     2     1    13    1
     3     1    17    1
     4     1     2    1
     5     3     5    1
     6     3    16    1
     7     3     4    1
     8     5     7    1
     9     5    15    1
    10     5     6    1
    11     7    14    1
    12     7     8    1
    13     9     7    1
    14     9    13    1
    15     9    11    1
    16     9    10    1
    17    11    12    1
    18    11    33    1
    19    11    34    1
    20    12    35    1
    21    12    36    1
    22    15    37    1
    23    16    38    1
    24    16    39    1
    25    17    18    1
    26    18    19    1
    27    18    20    1
    28    20    22    1
    29    20    32    1
    30    20    21    1
    31    22    24    1
    32    22    31    1
    33    22    23    1
    34    24    25    1
    35    24    26    1
    36    24    30    1
    37    26    27    1
    38    26    40    1
    39    26    41    1
    40    27    28    1
    41    27    18    1
    42    27    29    1
    43    29    42    1
    44    29    43    1
    45    30    44    1
    46    30    45    1
    47    31    46    1
    48    32    47    1
