REMARK  2 active torsions:
REMARK  status: ('A' for Active; 'I' for Inactive)
REMARK    1  A    between atoms: C_12  and  N_13 
REMARK    2  A    between atoms: C_34  and  N_35 
ROOT
ATOM      1  P   UNL d   1      43.179  49.903  71.515  0.00  0.00     0.410 P 
ATOM      2  O   UNL d   1      42.977  51.249  70.857  0.00  0.00    -0.624 OA
ATOM      3  O   UNL d   1      43.053  48.634  70.712  0.00  0.00    -0.624 OA
ATOM      4  O   UNL d   1      44.568  49.871  72.293  0.00  0.00    -0.268 OA
ATOM      5  C   UNL d   1      45.719  49.661  71.523  0.00  0.00     0.187 C 
ATOM      6  C   UNL d   1      46.919  49.724  72.437  0.00  0.00     0.178 C 
ATOM      7  O   UNL d   1      48.004  49.962  71.546  0.00  0.00    -0.331 OA
ATOM      8  C   UNL d   1      46.835  50.891  73.394  0.00  0.00     0.191 C 
ATOM      9  O   UNL d   1      46.782  50.409  74.739  0.00  0.00    -0.268 OA
ATOM     10  C   UNL d   1      48.088  51.691  73.096  0.00  0.00     0.231 C 
ATOM     11  O   UNL d   1      49.097  51.359  74.050  0.00  0.00    -0.216 OA
ATOM     12  C   UNL d   1      48.569  51.248  71.722  0.00  0.00     0.241 C 
ATOM     13  P   UNL d   1      46.231  51.267  76.005  0.00  0.00     0.410 P 
ATOM     14  O   UNL d   1      46.529  52.728  75.810  0.00  0.00    -0.624 OA
ATOM     15  O   UNL d   1      46.795  50.562  77.214  0.00  0.00    -0.624 OA
ATOM     16  O   UNL d   1      44.629  51.110  75.933  0.00  0.00    -0.268 OA
ATOM     17  C   UNL d   1      44.044  49.864  75.567  0.00  0.00     0.187 C 
ATOM     18  C   UNL d   1      42.585  50.045  75.180  0.00  0.00     0.178 C 
ATOM     19  O   UNL d   1      41.971  50.931  76.103  0.00  0.00    -0.331 OA
ATOM     20  C   UNL d   1      42.412  50.735  73.847  0.00  0.00     0.191 C 
ATOM     21  O   UNL d   1      42.217  49.804  72.795  0.00  0.00    -0.268 OA
ATOM     22  C   UNL d   1      41.177  51.587  73.990  0.00  0.00     0.231 C 
ATOM     23  O   UNL d   1      40.069  50.831  73.513  0.00  0.00    -0.216 OA
ATOM     24  C   UNL d   1      41.004  51.774  75.474  0.00  0.00     0.241 C 
ENDROOT
BRANCH  12  25
ATOM     25  N   UNL d   1      48.077  52.155  70.634  0.00  0.00    -0.270 N 
ATOM     26  C   UNL d   1      46.792  52.460  70.371  0.00  0.00     0.182 A 
ATOM     27  N   UNL d   1      46.654  53.322  69.341  0.00  0.00    -0.219 NA
ATOM     28  C   UNL d   1      47.887  53.594  68.907  0.00  0.00     0.155 A 
ATOM     29  C   UNL d   1      48.449  54.438  67.832  0.00  0.00     0.206 A 
ATOM     30  C   UNL d   1      48.823  52.828  69.754  0.00  0.00     0.170 A 
ATOM     31  N   UNL d   1      47.646  55.160  67.012  0.00  0.00    -0.125 N 
ATOM     32  N   UNL d   1      49.789  54.459  67.706  0.00  0.00    -0.202 NA
ATOM     33  C   UNL d   1      50.585  53.736  68.513  0.00  0.00     0.202 A 
ATOM     34  N   UNL d   1      50.149  52.938  69.507  0.00  0.00    -0.205 NA
ENDBRANCH  12  25
BRANCH  24  35
ATOM     35  N   UNL d   1      41.266  53.182  75.861  0.00  0.00    -0.270 N 
ATOM     36  C   UNL d   1      42.477  53.748  76.002  0.00  0.00     0.182 A 
ATOM     37  N   UNL d   1      42.377  55.051  76.378  0.00  0.00    -0.219 NA
ATOM     38  C   UNL d   1      41.070  55.329  76.495  0.00  0.00     0.155 A 
ATOM     39  C   UNL d   1      40.267  56.510  76.866  0.00  0.00     0.206 A 
ATOM     40  C   UNL d   1      40.345  54.100  76.149  0.00  0.00     0.170 A 
ATOM     41  N   UNL d   1      40.853  57.680  77.181  0.00  0.00    -0.125 N 
ATOM     42  N   UNL d   1      38.935  56.396  76.864  0.00  0.00    -0.202 NA
ATOM     43  C   UNL d   1      38.342  55.238  76.543  0.00  0.00     0.202 A 
ATOM     44  N   UNL d   1      38.998  54.120  76.191  0.00  0.00    -0.205 NA
ENDBRANCH  24  35
TORSDOF 2
