temp2.pdb
 OpenBabel10091713583D

 72 78  0  0  1  0  0  0  0  0999 V2000
   43.1790   49.9030   71.5150 P   0  0  1  0  0  0  0  0  0  0  0  0
   42.2170   49.8040   72.7950 O   0  0  0  0  0  0  0  0  0  0  0  0
   42.4120   50.7350   73.8470 C   0  0  2  0  0  0  0  0  0  0  0  0
   42.5850   50.0450   75.1800 C   0  0  1  0  0  0  0  0  0  0  0  0
   44.0440   49.8640   75.5670 C   0  0  0  0  0  0  0  0  0  0  0  0
   44.6290   51.1100   75.9330 O   0  0  0  0  0  0  0  0  0  0  0  0
   46.2310   51.2670   76.0050 P   0  0  2  0  0  0  0  0  0  0  0  0
   46.7950   50.5620   77.2140 O   0  0  0  0  0  0  0  0  0  0  0  0
   46.5290   52.7280   75.8100 O   0  0  0  0  0  0  0  0  0  0  0  0
   46.7820   50.4090   74.7390 O   0  0  0  0  0  0  0  0  0  0  0  0
   46.8350   50.8910   73.3940 C   0  0  2  0  0  0  0  0  0  0  0  0
   46.9190   49.7240   72.4370 C   0  0  1  0  0  0  0  0  0  0  0  0
   45.7190   49.6610   71.5230 C   0  0  0  0  0  0  0  0  0  0  0  0
   48.0040   49.9620   71.5460 O   0  0  0  0  0  0  0  0  0  0  0  0
   48.5690   51.2480   71.7220 C   0  0  1  0  0  0  0  0  0  0  0  0
   48.0770   52.1550   70.6340 N   0  0  0  0  0  0  0  0  0  0  0  0
   48.8230   52.8280   69.7540 C   0  0  0  0  0  0  0  0  0  0  0  0
   50.1490   52.9380   69.5070 N   0  0  0  0  0  0  0  0  0  0  0  0
   50.5850   53.7360   68.5130 C   0  0  0  0  0  0  0  0  0  0  0  0
   49.7890   54.4590   67.7060 N   0  0  0  0  0  0  0  0  0  0  0  0
   48.4490   54.4380   67.8320 C   0  0  0  0  0  0  0  0  0  0  0  0
   47.6460   55.1600   67.0120 N   0  0  0  0  0  0  0  0  0  0  0  0
   47.8870   53.5940   68.9070 C   0  0  0  0  0  0  0  0  0  0  0  0
   46.6540   53.3220   69.3410 N   0  0  0  0  0  0  0  0  0  0  0  0
   46.7920   52.4600   70.3710 C   0  0  0  0  0  0  0  0  0  0  0  0
   48.0880   51.6910   73.0960 C   0  0  2  0  0  0  0  0  0  0  0  0
   49.0970   51.3590   74.0500 O   0  0  0  0  0  0  0  0  0  0  0  0
   41.9710   50.9310   76.1030 O   0  0  0  0  0  0  0  0  0  0  0  0
   41.0040   51.7740   75.4740 C   0  0  1  0  0  0  0  0  0  0  0  0
   41.2660   53.1820   75.8610 N   0  0  0  0  0  0  0  0  0  0  0  0
   40.3450   54.1000   76.1490 C   0  0  0  0  0  0  0  0  0  0  0  0
   38.9980   54.1200   76.1910 N   0  0  0  0  0  0  0  0  0  0  0  0
   38.3420   55.2380   76.5430 C   0  0  0  0  0  0  0  0  0  0  0  0
   38.9350   56.3960   76.8640 N   0  0  0  0  0  0  0  0  0  0  0  0
   40.2670   56.5100   76.8660 C   0  0  0  0  0  0  0  0  0  0  0  0
   40.8530   57.6800   77.1810 N   0  0  0  0  0  0  0  0  0  0  0  0
   41.0700   55.3290   76.4950 C   0  0  0  0  0  0  0  0  0  0  0  0
   42.3770   55.0510   76.3780 N   0  0  0  0  0  0  0  0  0  0  0  0
   42.4770   53.7480   76.0020 C   0  0  0  0  0  0  0  0  0  0  0  0
   41.1770   51.5870   73.9900 C   0  0  2  0  0  0  0  0  0  0  0  0
   40.0690   50.8310   73.5130 O   0  0  0  0  0  0  0  0  0  0  0  0
   44.5680   49.8710   72.2930 O   0  0  0  0  0  0  0  0  0  0  0  0
   43.0530   48.6340   70.7120 O   0  0  0  0  0  0  0  0  0  0  0  0
   42.9770   51.2490   70.8570 O   0  0  0  0  0  0  0  0  0  0  0  0
   43.2854   51.3029   73.6030 H   0  0  0  0  0  0  0  0  0  0  0  0
   42.1634   49.0619   75.1568 H   0  0  0  0  0  0  0  0  0  0  0  0
   44.5794   49.4560   74.7353 H   0  0  0  0  0  0  0  0  0  0  0  0
   44.0966   49.2012   76.4054 H   0  0  0  0  0  0  0  0  0  0  0  0
   46.5198   49.6319   77.2035 H   0  0  0  0  0  0  0  0  0  0  0  0
   45.9587   51.4941   73.2788 H   0  0  0  0  0  0  0  0  0  0  0  0
   47.0065   48.8365   73.0283 H   0  0  0  0  0  0  0  0  0  0  0  0
   45.6708   48.7000   71.0549 H   0  0  0  0  0  0  0  0  0  0  0  0
   45.7953   50.4097   70.7624 H   0  0  0  0  0  0  0  0  0  0  0  0
   49.6375   51.2607   71.6677 H   0  0  0  0  0  0  0  0  0  0  0  0
   51.1510   53.1014   67.8635 H   0  0  0  0  0  0  0  0  0  0  0  0
   51.0507   54.5160   69.0783 H   0  0  0  0  0  0  0  0  0  0  0  0
   48.0402   55.7162   66.3017 H   0  0  0  0  0  0  0  0  0  0  0  0
   46.6687   55.1280   67.1269 H   0  0  0  0  0  0  0  0  0  0  0  0
   46.3607   52.9015   71.2451 H   0  0  0  0  0  0  0  0  0  0  0  0
   46.2975   51.5517   70.0964 H   0  0  0  0  0  0  0  0  0  0  0  0
   47.8916   52.7421   73.1342 H   0  0  0  0  0  0  0  0  0  0  0  0
   49.2744   50.4060   74.0147 H   0  0  0  0  0  0  0  0  0  0  0  0
   40.0041   51.5315   75.7678 H   0  0  0  0  0  0  0  0  0  0  0  0
   37.7535   54.9700   77.3955 H   0  0  0  0  0  0  0  0  0  0  0  0
   37.8841   55.5008   75.6123 H   0  0  0  0  0  0  0  0  0  0  0  0
   40.3004   58.4571   77.4260 H   0  0  0  0  0  0  0  0  0  0  0  0
   41.8342   57.7587   77.1664 H   0  0  0  0  0  0  0  0  0  0  0  0
   42.9968   53.6944   75.0683 H   0  0  0  0  0  0  0  0  0  0  0  0
   43.0086   53.2182   76.7646 H   0  0  0  0  0  0  0  0  0  0  0  0
   41.2473   52.5140   73.4602 H   0  0  0  0  0  0  0  0  0  0  0  0
   40.0152   49.9938   73.9999 H   0  0  0  0  0  0  0  0  0  0  0  0
   43.6315   48.6842   69.9350 H   0  0  0  0  0  0  0  0  0  0  0  0
  1 44  2  6  0  0  0
  1 43  1  0  0  0  0
  1 42  1  0  0  0  0
  1  2  1  0  0  0  0
  3  2  1  0  0  0  0
  3 40  1  0  0  0  0
  3  4  1  0  0  0  0
  3 45  1  6  0  0  0
  4 28  1  0  0  0  0
  4  5  1  0  0  0  0
  4 46  1  6  0  0  0
  5  6  1  0  0  0  0
  5 47  1  0  0  0  0
  5 48  1  0  0  0  0
  6  7  1  0  0  0  0
  7 10  1  0  0  0  0
  7  9  2  6  0  0  0
  7  8  1  0  0  0  0
  8 49  1  0  0  0  0
 11 10  1  0  0  0  0
 11 26  1  0  0  0  0
 11 12  1  0  0  0  0
 11 50  1  6  0  0  0
 12 14  1  0  0  0  0
 12 13  1  0  0  0  0
 12 51  1  1  0  0  0
 13 42  1  0  0  0  0
 13 52  1  0  0  0  0
 13 53  1  0  0  0  0
 14 15  1  0  0  0  0
 15 16  1  0  0  0  0
 15 26  1  0  0  0  0
 15 54  1  6  0  0  0
 16 25  1  0  0  0  0
 16 17  1  0  0  0  0
 17 23  1  0  0  0  0
 17 18  2  0  0  0  0
 18 19  1  0  0  0  0
 19 20  1  0  0  0  0
 19 55  1  0  0  0  0
 19 56  1  0  0  0  0
 20 21  2  0  0  0  0
 21 23  1  0  0  0  0
 21 22  1  0  0  0  0
 22 57  1  0  0  0  0
 22 58  1  0  0  0  0
 23 24  2  0  0  0  0
 24 25  1  0  0  0  0
 25 59  1  0  0  0  0
 25 60  1  0  0  0  0
 26 27  1  0  0  0  0
 26 61  1  1  0  0  0
 27 62  1  0  0  0  0
 28 29  1  0  0  0  0
 29 30  1  0  0  0  0
 29 40  1  0  0  0  0
 29 63  1  1  0  0  0
 30 39  1  0  0  0  0
 30 31  1  0  0  0  0
 31 37  1  0  0  0  0
 31 32  2  0  0  0  0
 32 33  1  0  0  0  0
 33 34  1  0  0  0  0
 33 64  1  0  0  0  0
 33 65  1  0  0  0  0
 34 35  2  0  0  0  0
 35 37  1  0  0  0  0
 35 36  1  0  0  0  0
 36 66  1  0  0  0  0
 36 67  1  0  0  0  0
 37 38  2  0  0  0  0
 38 39  1  0  0  0  0
 39 68  1  0  0  0  0
 39 69  1  0  0  0  0
 40 41  1  0  0  0  0
 40 70  1  6  0  0  0
 41 71  1  0  0  0  0
 43 72  1  0  0  0  0
M  END
$$$$
