4QK9_2BA_A_201
 OpenBabel10281720503D
Coordinates from PDB:4QK9:A:201 Model:1 without hydrogens
 68 74  0  0  0  0  0  0  0  0999 V2000
   43.1790   49.9030   71.5150 P   0  0  1  0  0  0  0  0  0  0  0  0
   42.9770   51.2490   70.8570 O   0  0  0  0  0  0  0  0  0  0  0  0
   43.0530   48.6340   70.7120 O   0  0  0  0  0  0  0  0  0  0  0  0
   44.5680   49.8710   72.2930 O   0  0  0  0  0  0  0  0  0  0  0  0
   45.7190   49.6610   71.5230 C   0  0  0  0  0  0  0  0  0  0  0  0
   46.9190   49.7240   72.4370 C   0  0  1  0  0  0  0  0  0  0  0  0
   48.0040   49.9620   71.5460 O   0  0  0  0  0  0  0  0  0  0  0  0
   46.8350   50.8910   73.3940 C   0  0  1  0  0  0  0  0  0  0  0  0
   46.7820   50.4090   74.7390 O   0  0  0  0  0  0  0  0  0  0  0  0
   48.0880   51.6910   73.0960 C   0  0  1  0  0  0  0  0  0  0  0  0
   49.0970   51.3590   74.0500 O   0  0  0  0  0  0  0  0  0  0  0  0
   48.5690   51.2480   71.7220 C   0  0  2  0  0  0  0  0  0  0  0  0
   48.0770   52.1550   70.6340 N   0  0  0  0  0  0  0  0  0  0  0  0
   46.7920   52.4600   70.3710 C   0  0  0  0  0  0  0  0  0  0  0  0
   46.6540   53.3220   69.3410 N   0  0  0  0  0  0  0  0  0  0  0  0
   47.8870   53.5940   68.9070 C   0  0  0  0  0  0  0  0  0  0  0  0
   48.4490   54.4380   67.8320 C   0  0  0  0  0  0  0  0  0  0  0  0
   47.6460   55.1600   67.0120 N   0  0  0  0  0  0  0  0  0  0  0  0
   49.7890   54.4590   67.7060 N   0  0  0  0  0  0  0  0  0  0  0  0
   50.5850   53.7360   68.5130 C   0  0  0  0  0  0  0  0  0  0  0  0
   50.1490   52.9380   69.5070 N   0  0  0  0  0  0  0  0  0  0  0  0
   48.8230   52.8280   69.7540 C   0  0  0  0  0  0  0  0  0  0  0  0
   46.2310   51.2670   76.0050 P   0  0  2  0  0  0  0  0  0  0  0  0
   46.5290   52.7280   75.8100 O   0  0  0  0  0  0  0  0  0  0  0  0
   46.7950   50.5620   77.2140 O   0  0  0  0  0  0  0  0  0  0  0  0
   44.6290   51.1100   75.9330 O   0  0  0  0  0  0  0  0  0  0  0  0
   44.0440   49.8640   75.5670 C   0  0  0  0  0  0  0  0  0  0  0  0
   42.5850   50.0450   75.1800 C   0  0  1  0  0  0  0  0  0  0  0  0
   41.9710   50.9310   76.1030 O   0  0  0  0  0  0  0  0  0  0  0  0
   42.4120   50.7350   73.8470 C   0  0  1  0  0  0  0  0  0  0  0  0
   42.2170   49.8040   72.7950 O   0  0  0  0  0  0  0  0  0  0  0  0
   41.1770   51.5870   73.9900 C   0  0  1  0  0  0  0  0  0  0  0  0
   40.0690   50.8310   73.5130 O   0  0  0  0  0  0  0  0  0  0  0  0
   41.0040   51.7740   75.4740 C   0  0  2  0  0  0  0  0  0  0  0  0
   41.2660   53.1820   75.8610 N   0  0  0  0  0  0  0  0  0  0  0  0
   42.4770   53.7480   76.0020 C   0  0  0  0  0  0  0  0  0  0  0  0
   42.3770   55.0510   76.3780 N   0  0  0  0  0  0  0  0  0  0  0  0
   41.0700   55.3290   76.4950 C   0  0  0  0  0  0  0  0  0  0  0  0
   40.2670   56.5100   76.8660 C   0  0  0  0  0  0  0  0  0  0  0  0
   40.8530   57.6800   77.1810 N   0  0  0  0  0  0  0  0  0  0  0  0
   38.9350   56.3960   76.8640 N   0  0  0  0  0  0  0  0  0  0  0  0
   38.3420   55.2380   76.5430 C   0  0  0  0  0  0  0  0  0  0  0  0
   38.9980   54.1200   76.1910 N   0  0  0  0  0  0  0  0  0  0  0  0
   40.3450   54.1000   76.1490 C   0  0  0  0  0  0  0  0  0  0  0  0
   43.6315   48.6842   69.9350 H   0  0  0  0  0  0  0  0  0  0  0  0
   45.7956   50.4198   70.7725 H   0  0  0  0  0  0  0  0  0  0  0  0
   45.6717   48.7063   71.0421 H   0  0  0  0  0  0  0  0  0  0  0  0
   47.0065   48.8365   73.0283 H   0  0  0  0  0  0  0  0  0  0  0  0
   45.9587   51.4941   73.2788 H   0  0  0  0  0  0  0  0  0  0  0  0
   47.8916   52.7421   73.1342 H   0  0  0  0  0  0  0  0  0  0  0  0
   49.2744   50.4060   74.0147 H   0  0  0  0  0  0  0  0  0  0  0  0
   49.6375   51.2607   71.6677 H   0  0  0  0  0  0  0  0  0  0  0  0
   45.9952   52.0748   70.9018 H   0  0  0  0  0  0  0  0  0  0  0  0
   46.6687   55.1267   67.1258 H   0  0  0  0  0  0  0  0  0  0  0  0
   48.0403   55.7175   66.3028 H   0  0  0  0  0  0  0  0  0  0  0  0
   51.6038   53.7967   68.3599 H   0  0  0  0  0  0  0  0  0  0  0  0
   47.7585   50.6724   77.2324 H   0  0  0  0  0  0  0  0  0  0  0  0
   44.1060   49.1905   76.3961 H   0  0  0  0  0  0  0  0  0  0  0  0
   44.5753   49.4698   74.7261 H   0  0  0  0  0  0  0  0  0  0  0  0
   42.1634   49.0619   75.1568 H   0  0  0  0  0  0  0  0  0  0  0  0
   43.2854   51.3029   73.6030 H   0  0  0  0  0  0  0  0  0  0  0  0
   41.2473   52.5140   73.4602 H   0  0  0  0  0  0  0  0  0  0  0  0
   40.0152   49.9938   73.9999 H   0  0  0  0  0  0  0  0  0  0  0  0
   40.0041   51.5315   75.7678 H   0  0  0  0  0  0  0  0  0  0  0  0
   43.3702   53.2557   75.8447 H   0  0  0  0  0  0  0  0  0  0  0  0
   41.8346   57.7549   77.1799 H   0  0  0  0  0  0  0  0  0  0  0  0
   40.3000   58.4609   77.4125 H   0  0  0  0  0  0  0  0  0  0  0  0
   37.3109   55.2028   76.5679 H   0  0  0  0  0  0  0  0  0  0  0  0
  1  2  2  6  0  0  0
  1  3  1  0  0  0  0
  1  4  1  0  0  0  0
  1 31  1  0  0  0  0
  3 45  1  0  0  0  0
  4  5  1  0  0  0  0
  5 46  1  0  0  0  0
  5 47  1  0  0  0  0
  6  5  1  0  0  0  0
  6  7  1  0  0  0  0
  6  8  1  0  0  0  0
  6 48  1  1  0  0  0
  7 12  1  0  0  0  0
  8  9  1  0  0  0  0
  8 10  1  0  0  0  0
  8 49  1  6  0  0  0
  9 23  1  0  0  0  0
 10 11  1  0  0  0  0
 10 12  1  0  0  0  0
 10 50  1  1  0  0  0
 11 51  1  0  0  0  0
 12 13  1  0  0  0  0
 12 52  1  6  0  0  0
 13 14  1  0  0  0  0
 13 22  1  0  0  0  0
 14 15  2  0  0  0  0
 14 53  1  0  0  0  0
 15 16  1  0  0  0  0
 16 17  2  0  0  0  0
 16 22  1  0  0  0  0
 17 18  1  0  0  0  0
 17 19  1  0  0  0  0
 18 54  1  0  0  0  0
 18 55  1  0  0  0  0
 19 20  2  0  0  0  0
 20 21  1  0  0  0  0
 20 56  1  0  0  0  0
 21 22  2  0  0  0  0
 23 24  2  6  0  0  0
 23 25  1  0  0  0  0
 23 26  1  0  0  0  0
 25 57  1  0  0  0  0
 26 27  1  0  0  0  0
 27 58  1  0  0  0  0
 27 59  1  0  0  0  0
 28 27  1  0  0  0  0
 28 29  1  0  0  0  0
 28 30  1  0  0  0  0
 28 60  1  6  0  0  0
 29 34  1  0  0  0  0
 30 31  1  0  0  0  0
 30 32  1  0  0  0  0
 30 61  1  6  0  0  0
 32 33  1  0  0  0  0
 32 34  1  0  0  0  0
 32 62  1  6  0  0  0
 33 63  1  0  0  0  0
 34 35  1  0  0  0  0
 34 64  1  1  0  0  0
 35 36  1  0  0  0  0
 35 44  1  0  0  0  0
 36 37  2  0  0  0  0
 36 65  1  0  0  0  0
 37 38  1  0  0  0  0
 38 39  2  0  0  0  0
 38 44  1  0  0  0  0
 39 40  1  0  0  0  0
 39 41  1  0  0  0  0
 40 66  1  0  0  0  0
 40 67  1  0  0  0  0
 41 42  2  0  0  0  0
 42 43  1  0  0  0  0
 42 68  1  0  0  0  0
 43 44  2  0  0  0  0
A    1
P
A    2
O1P
A    3
O2P
A    4
O5'
A    5
C5'
A    6
C4'
A    7
O4'
A    8
C3'
A    9
O3'
A   10
C2'
A   11
O2'
A   12
C1'
A   13
N9
A   14
C8
A   15
N7
A   16
C5
A   17
C6
A   18
N6
A   19
N1
A   20
C2
A   21
N3
A   22
C4
A   23
P1
A   24
O1P1
A   25
O2P1
A   26
O5'1
A   27
C5'1
A   28
C4'1
A   29
O4'1
A   30
C3'1
A   31
O3'1
A   32
C2'1
A   33
O2'1
A   34
C1'1
A   35
N91
A   36
C81
A   37
N71
A   38
C51
A   39
C61
A   40
N61
A   41
N11
A   42
C21
A   43
N31
A   44
C41
M  END
>  <InstanceId>
4QK9_2BA_A_201

>  <ChemCompId>
2BA

>  <PdbId>
4QK9

>  <ChainId>
A

>  <ResidueNumber>
201

>  <InsertionCode>


>  <Model>
1

>  <AltIds>


>  <MissingHeavyAtoms>
0

>  <ObservedFormula>
C20 N10 O12 P2

>  <Name>
(2R,3R,3aS,5R,7aR,9R,10R,10aS,12R,14aR)-2,9-bis(6-amino-9H-purin-9-yl)octahydro-2H,7H-difuro[3,2-d:3',2'-j][1,3,7,9,2,8]tetraoxadiphosphacyclododecine-3,5,10,12-tetrol 5,12-dioxide

>  <SystematicName>


>  <Synonyms>
bis-(3',5')-cyclic-dimeric-Adenosine-monophosphate

>  <Type>
NON-POLYMER

>  <Formula>
C20 H24 N10 O12 P2

>  <MolecularWeight>
658.412

>  <ModifiedDate>
2011-06-04

>  <Parent>


>  <OneLetterCode>


>  <SubcomponentList>


>  <AmbiguousFlag>
N

>  <InChI>
InChI=1S/C20H24N10O12P2/c21-15-9-17(25-3-23-15)29(5-27-9)19-11(31)13-7(39-19)1-37-43(33,34)42-14-8(2-38-44(35,36)41-13)40-20(12(14)32)30-6-28-10-16(22)24-4-26-18(10)30/h3-8,11-14,19-20,31-32H,1-2H2,(H,33,34)(H,35,36)(H2,21,23,25)(H2,22,24,26)/t7-,8-,11-,12-,13-,14-,19-,20-/m1/s1

>  <InChIKey>
PDXMFTWFFKBFIN-XPWFQUROSA-N

>  <SMILES>
c1nc(c2c(n1)n(cn2)[C@H]3[C@@H]([C@H]4[C@H](O3)CO[P@](=O)(O[C@@H]5[C@@H](CO[P@](=O)(O4)O)O[C@H]([C@@H]5O)n6cnc7c6ncnc7N)O)O)N

$$$$
