@<TRIPOS>MOLECULE
4QK9_2BA_A_201
 44 50 0 0 0
SMALL
GASTEIGER
****
Coordinates from PDB:4QK9:A:201 Model:1 without hydrogens
@<TRIPOS>ATOM
      1 P          43.1790   49.9030   71.5150 P.3     1  UNL1        0.2141
      2 O          42.9770   51.2490   70.8570 O.2     1  UNL1       -0.5172
      3 O          43.0530   48.6340   70.7120 O.3     1  UNL1       -0.4373
      4 O          44.5680   49.8710   72.2930 O.3     1  UNL1       -0.3114
      5 C          45.7190   49.6610   71.5230 C.3     1  UNL1        0.1812
      6 C          46.9190   49.7240   72.4370 C.3     1  UNL1        0.1773
      7 O          48.0040   49.9620   71.5460 O.3     1  UNL1       -0.3307
      8 C          46.8350   50.8910   73.3940 C.3     1  UNL1        0.1860
      9 O          46.7820   50.4090   74.7390 O.3     1  UNL1       -0.3112
     10 C          48.0880   51.6910   73.0960 C.3     1  UNL1        0.2309
     11 O          49.0970   51.3590   74.0500 O.3     1  UNL1       -0.2156
     12 C          48.5690   51.2480   71.7220 C.3     1  UNL1        0.2408
     13 N          48.0770   52.1550   70.6340 N.ar    1  UNL1       -0.2693
     14 C          46.7920   52.4600   70.3710 C.ar    1  UNL1        0.1816
     15 N          46.6540   53.3220   69.3410 N.ar    1  UNL1       -0.2193
     16 C          47.8870   53.5940   68.9070 C.ar    1  UNL1        0.1518
     17 C          48.4490   54.4380   67.8320 C.ar    1  UNL1        0.1919
     18 N          47.6460   55.1600   67.0120 N.pl3   1  UNL1       -0.1054
     19 N          49.7890   54.4590   67.7060 N.ar    1  UNL1       -0.2040
     20 C          50.5850   53.7360   68.5130 C.ar    1  UNL1        0.2016
     21 N          50.1490   52.9380   69.5070 N.ar    1  UNL1       -0.2048
     22 C          48.8230   52.8280   69.7540 C.ar    1  UNL1        0.1692
     23 P          46.2310   51.2670   76.0050 P.3     1  UNL1        0.2141
     24 O          46.5290   52.7280   75.8100 O.2     1  UNL1       -0.5172
     25 O          46.7950   50.5620   77.2140 O.3     1  UNL1       -0.4373
     26 O          44.6290   51.1100   75.9330 O.3     1  UNL1       -0.3114
     27 C          44.0440   49.8640   75.5670 C.3     1  UNL1        0.1812
     28 C          42.5850   50.0450   75.1800 C.3     1  UNL1        0.1773
     29 O          41.9710   50.9310   76.1030 O.3     1  UNL1       -0.3307
     30 C          42.4120   50.7350   73.8470 C.3     1  UNL1        0.1860
     31 O          42.2170   49.8040   72.7950 O.3     1  UNL1       -0.3112
     32 C          41.1770   51.5870   73.9900 C.3     1  UNL1        0.2309
     33 O          40.0690   50.8310   73.5130 O.3     1  UNL1       -0.2156
     34 C          41.0040   51.7740   75.4740 C.3     1  UNL1        0.2408
     35 N          41.2660   53.1820   75.8610 N.ar    1  UNL1       -0.2693
     36 C          42.4770   53.7480   76.0020 C.ar    1  UNL1        0.1816
     37 N          42.3770   55.0510   76.3780 N.ar    1  UNL1       -0.2193
     38 C          41.0700   55.3290   76.4950 C.ar    1  UNL1        0.1518
     39 C          40.2670   56.5100   76.8660 C.ar    1  UNL1        0.1919
     40 N          40.8530   57.6800   77.1810 N.pl3   1  UNL1       -0.1054
     41 N          38.9350   56.3960   76.8640 N.ar    1  UNL1       -0.2040
     42 C          38.3420   55.2380   76.5430 C.ar    1  UNL1        0.2016
     43 N          38.9980   54.1200   76.1910 N.ar    1  UNL1       -0.2048
     44 C          40.3450   54.1000   76.1490 C.ar    1  UNL1        0.1692
@<TRIPOS>BOND
     1     1     2    2
     2     1     3    1
     3     1     4    1
     4     1    31    1
     5     4     5    1
     6     6     5    1
     7     6     7    1
     8     6     8    1
     9     7    12    1
    10     8     9    1
    11     8    10    1
    12     9    23    1
    13    10    11    1
    14    10    12    1
    15    12    13    1
    16    13    14   ar
    17    13    22   ar
    18    14    15   ar
    19    15    16   ar
    20    16    17   ar
    21    16    22   ar
    22    17    18    1
    23    17    19   ar
    24    19    20   ar
    25    20    21   ar
    26    21    22   ar
    27    23    24    2
    28    23    25    1
    29    23    26    1
    30    26    27    1
    31    28    27    1
    32    28    29    1
    33    28    30    1
    34    29    34    1
    35    30    31    1
    36    30    32    1
    37    32    33    1
    38    32    34    1
    39    34    35    1
    40    35    36   ar
    41    35    44   ar
    42    36    37   ar
    43    37    38   ar
    44    38    39   ar
    45    38    44   ar
    46    39    40    1
    47    39    41   ar
    48    41    42   ar
    49    42    43   ar
    50    43    44   ar
