@<TRIPOS>MOLECULE
2A04_NMY_A_17
 42 45 0 0 0
SMALL
GASTEIGER
****
Coordinates from PDB:2A04:A:17 Model:1 without hydrogens
@<TRIPOS>ATOM
      1 C          23.5750   20.7460   40.6940 C.3     1  UNL1        0.2561
      2 O          23.6230   20.3610   42.0800 O.3     1  UNL1       -0.3278
      3 C          22.1700   21.3330   40.5020 C.3     1  UNL1        0.1807
      4 N          21.8680   22.3630   41.5130 N.3     1  UNL1       -0.1248
      5 C          21.0790   20.2330   40.5900 C.3     1  UNL1        0.2070
      6 O          19.7870   20.7910   40.3630 O.3     1  UNL1       -0.2186
      7 C          21.3730   19.1140   39.5710 C.3     1  UNL1        0.2122
      8 O          20.3990   18.1210   39.6330 O.3     1  UNL1       -0.2177
      9 C          22.7610   18.5040   39.8620 C.3     1  UNL1        0.1696
     10 O          23.7610   19.5760   39.7940 O.3     1  UNL1       -0.3276
     11 C          23.0960   17.3900   38.8660 C.3     1  UNL1        0.1415
     12 C          26.4640   20.0740   45.3060 C.3     1  UNL1        0.1261
     13 N          27.7060   19.8340   46.0990 N.3     1  UNL1       -0.1301
     14 C          26.7390   21.1500   44.2030 C.3     1  UNL1        0.1989
     15 C          25.4520   21.4370   43.3060 C.3     1  UNL1        0.1779
     16 O          25.8050   22.2150   42.1150 O.3     1  UNL1       -0.3258
     17 C          24.8940   20.1110   42.7370 C.3     1  UNL1        0.1649
     18 C          24.6250   19.0430   43.8360 C.3     1  UNL1        0.1230
     19 N          24.1030   17.8010   43.2050 N.3     1  UNL1       -0.1302
     20 C          25.9400   18.7390   44.6290 C.3     1  UNL1        0.0433
     21 C          25.7560   23.6370   42.1560 C.3     1  UNL1        0.2694
     22 C          26.6150   24.3370   41.0550 C.3     1  UNL1        0.2373
     23 C          25.8240   25.6050   40.9060 C.3     1  UNL1        0.1827
     24 C          24.3600   25.1400   40.9370 C.3     1  UNL1        0.1804
     25 O          24.4130   24.1550   41.9830 O.3     1  UNL1       -0.3257
     26 C          23.8250   24.5190   39.6060 C.3     1  UNL1        0.2141
     27 C          25.0760   30.6790   42.2900 C.3     1  UNL1        0.2122
     28 C          26.6240   30.2930   42.5960 C.3     1  UNL1        0.2070
     29 C          26.8230   28.7360   42.9210 C.3     1  UNL1        0.1807
     30 C          26.0760   27.8960   41.8320 C.3     1  UNL1        0.2561
     31 O          26.1480   26.4870   42.0470 O.3     1  UNL1       -0.3265
     32 C          24.4910   29.7230   41.1940 C.3     1  UNL1        0.1696
     33 O          24.6410   28.3660   41.7410 O.3     1  UNL1       -0.3276
     34 C          22.9840   29.9850   40.8320 C.3     1  UNL1        0.1415
     35 N          24.5380   17.0390   38.8520 N.3     1  UNL1       -0.1286
     36 O          27.9890   24.5170   41.4020 O.3     1  UNL1       -0.2150
     37 O          27.4390   30.6180   41.4500 O.3     1  UNL1       -0.2186
     38 O          24.3360   30.5120   43.5000 O.3     1  UNL1       -0.2177
     39 O          22.4780   24.9220   39.4020 O.3     1  UNL1       -0.2176
     40 O          27.1840   22.3470   44.8720 O.3     1  UNL1       -0.2189
     41 N          22.4870   29.2260   39.6520 N.3     1  UNL1       -0.1286
     42 N          26.3350   28.4090   44.2950 N.3     1  UNL1       -0.1248
@<TRIPOS>BOND
     1     1    10    1
     2     1     2    1
     3     1     3    1
     4     3     4    1
     5     3     5    1
     6     5     7    1
     7     5     6    1
     8     7     9    1
     9     7     8    1
    10     9    10    1
    11     9    11    1
    12    11    35    1
    13    12    13    1
    14    12    14    1
    15    12    20    1
    16    14    40    1
    17    14    15    1
    18    15    16    1
    19    15    17    1
    20    17     2    1
    21    17    18    1
    22    18    20    1
    23    18    19    1
    24    21    16    1
    25    21    22    1
    26    21    25    1
    27    22    36    1
    28    22    23    1
    29    23    31    1
    30    23    24    1
    31    24    25    1
    32    24    26    1
    33    26    39    1
    34    27    28    1
    35    27    32    1
    36    27    38    1
    37    28    29    1
    38    28    37    1
    39    29    42    1
    40    29    30    1
    41    30    33    1
    42    30    31    1
    43    32    33    1
    44    32    34    1
    45    34    41    1
