2A04_NMY_A_17
 OpenBabel10091713573D
Coordinates from PDB:2A04:A:17 Model:1 without hydrogens
 88 91  0  0  0  0  0  0  0  0999 V2000
   23.5750   20.7460   40.6940 C   0  0  2  0  0  0  0  0  0  0  0  0
   23.6230   20.3610   42.0800 O   0  0  0  0  0  0  0  0  0  0  0  0
   22.1700   21.3330   40.5020 C   0  0  2  0  0  0  0  0  0  0  0  0
   21.8680   22.3630   41.5130 N   0  0  0  0  0  0  0  0  0  0  0  0
   21.0790   20.2330   40.5900 C   0  0  1  0  0  0  0  0  0  0  0  0
   19.7870   20.7910   40.3630 O   0  0  0  0  0  0  0  0  0  0  0  0
   21.3730   19.1140   39.5710 C   0  0  2  0  0  0  0  0  0  0  0  0
   20.3990   18.1210   39.6330 O   0  0  0  0  0  0  0  0  0  0  0  0
   22.7610   18.5040   39.8620 C   0  0  2  0  0  0  0  0  0  0  0  0
   23.7610   19.5760   39.7940 O   0  0  0  0  0  0  0  0  0  0  0  0
   23.0960   17.3900   38.8660 C   0  0  0  0  0  0  0  0  0  0  0  0
   26.4640   20.0740   45.3060 C   0  0  1  0  0  0  0  0  0  0  0  0
   27.7060   19.8340   46.0990 N   0  0  0  0  0  0  0  0  0  0  0  0
   26.7390   21.1500   44.2030 C   0  0  1  0  0  0  0  0  0  0  0  0
   25.4520   21.4370   43.3060 C   0  0  1  0  0  0  0  0  0  0  0  0
   25.8050   22.2150   42.1150 O   0  0  0  0  0  0  0  0  0  0  0  0
   24.8940   20.1110   42.7370 C   0  0  1  0  0  0  0  0  0  0  0  0
   24.6250   19.0430   43.8360 C   0  0  1  0  0  0  0  0  0  0  0  0
   24.1030   17.8010   43.2050 N   0  0  0  0  0  0  0  0  0  0  0  0
   25.9400   18.7390   44.6290 C   0  0  0  0  0  0  0  0  0  0  0  0
   25.7560   23.6370   42.1560 C   0  0  1  0  0  0  0  0  0  0  0  0
   26.6150   24.3370   41.0550 C   0  0  1  0  0  0  0  0  0  0  0  0
   25.8240   25.6050   40.9060 C   0  0  1  0  0  0  0  0  0  0  0  0
   24.3600   25.1400   40.9370 C   0  0  2  0  0  0  0  0  0  0  0  0
   24.4130   24.1550   41.9830 O   0  0  0  0  0  0  0  0  0  0  0  0
   23.8250   24.5190   39.6060 C   0  0  0  0  0  0  0  0  0  0  0  0
   25.0760   30.6790   42.2900 C   0  0  1  0  0  0  0  0  0  0  0  0
   26.6240   30.2930   42.5960 C   0  0  1  0  0  0  0  0  0  0  0  0
   26.8230   28.7360   42.9210 C   0  0  2  0  0  0  0  0  0  0  0  0
   26.0760   27.8960   41.8320 C   0  0  1  0  0  0  0  0  0  0  0  0
   26.1480   26.4870   42.0470 O   0  0  0  0  0  0  0  0  0  0  0  0
   24.4910   29.7230   41.1940 C   0  0  1  0  0  0  0  0  0  0  0  0
   24.6410   28.3660   41.7410 O   0  0  0  0  0  0  0  0  0  0  0  0
   22.9840   29.9850   40.8320 C   0  0  0  0  0  0  0  0  0  0  0  0
   24.5380   17.0390   38.8520 N   0  0  0  0  0  0  0  0  0  0  0  0
   27.9890   24.5170   41.4020 O   0  0  0  0  0  0  0  0  0  0  0  0
   27.4390   30.6180   41.4500 O   0  0  0  0  0  0  0  0  0  0  0  0
   24.3360   30.5120   43.5000 O   0  0  0  0  0  0  0  0  0  0  0  0
   22.4780   24.9220   39.4020 O   0  0  0  0  0  0  0  0  0  0  0  0
   27.1840   22.3470   44.8720 O   0  0  0  0  0  0  0  0  0  0  0  0
   22.4870   29.2260   39.6520 N   0  0  0  0  0  0  0  0  0  0  0  0
   26.3350   28.4090   44.2950 N   0  0  0  0  0  0  0  0  0  0  0  0
   24.3551   21.4379   40.4540 H   0  0  0  0  0  0  0  0  0  0  0  0
   22.1615   21.7744   39.5273 H   0  0  0  0  0  0  0  0  0  0  0  0
   21.8765   21.9408   42.4415 H   0  0  0  0  0  0  0  0  0  0  0  0
   20.9469   22.7606   41.3287 H   0  0  0  0  0  0  0  0  0  0  0  0
   21.0931   19.8128   41.5739 H   0  0  0  0  0  0  0  0  0  0  0  0
   19.7536   21.1780   39.4742 H   0  0  0  0  0  0  0  0  0  0  0  0
   21.3633   19.5349   38.5873 H   0  0  0  0  0  0  0  0  0  0  0  0
   20.3940   17.7279   40.5198 H   0  0  0  0  0  0  0  0  0  0  0  0
   22.7598   18.0651   40.8378 H   0  0  0  0  0  0  0  0  0  0  0  0
   22.8142   17.7130   37.8856 H   0  0  0  0  0  0  0  0  0  0  0  0
   22.5570   16.5168   39.1692 H   0  0  0  0  0  0  0  0  0  0  0  0
   25.7079   20.4258   45.9764 H   0  0  0  0  0  0  0  0  0  0  0  0
   28.4442   19.4970   45.4810 H   0  0  0  0  0  0  0  0  0  0  0  0
   27.5201   19.1357   46.8189 H   0  0  0  0  0  0  0  0  0  0  0  0
   27.4884   20.7911   43.5289 H   0  0  0  0  0  0  0  0  0  0  0  0
   24.7542   21.9511   43.9335 H   0  0  0  0  0  0  0  0  0  0  0  0
   25.6382   19.7398   42.0637 H   0  0  0  0  0  0  0  0  0  0  0  0
   23.8963   19.4201   44.5228 H   0  0  0  0  0  0  0  0  0  0  0  0
   24.7938   17.4367   42.5489 H   0  0  0  0  0  0  0  0  0  0  0  0
   23.2381   18.0105   42.7065 H   0  0  0  0  0  0  0  0  0  0  0  0
   25.7406   18.0090   45.3855 H   0  0  0  0  0  0  0  0  0  0  0  0
   26.6836   18.3611   43.9588 H   0  0  0  0  0  0  0  0  0  0  0  0
   26.1457   23.8576   43.1278 H   0  0  0  0  0  0  0  0  0  0  0  0
   26.7374   23.7799   40.1497 H   0  0  0  0  0  0  0  0  0  0  0  0
   26.0315   26.1564   40.0128 H   0  0  0  0  0  0  0  0  0  0  0  0
   23.6832   25.9550   41.0877 H   0  0  0  0  0  0  0  0  0  0  0  0
   23.8726   23.4518   39.6662 H   0  0  0  0  0  0  0  0  0  0  0  0
   24.4259   24.8578   38.7881 H   0  0  0  0  0  0  0  0  0  0  0  0
   25.0116   31.6874   41.9382 H   0  0  0  0  0  0  0  0  0  0  0  0
   26.9161   30.8554   43.4582 H   0  0  0  0  0  0  0  0  0  0  0  0
   27.8649   28.4937   42.8975 H   0  0  0  0  0  0  0  0  0  0  0  0
   26.5748   28.0618   40.9000 H   0  0  0  0  0  0  0  0  0  0  0  0
   25.0185   29.8824   40.2768 H   0  0  0  0  0  0  0  0  0  0  0  0
   22.8663   31.0292   40.6304 H   0  0  0  0  0  0  0  0  0  0  0  0
   22.4092   29.6508   41.6704 H   0  0  0  0  0  0  0  0  0  0  0  0
   25.0831   17.8523   38.5661 H   0  0  0  0  0  0  0  0  0  0  0  0
   24.6957   16.2756   38.1942 H   0  0  0  0  0  0  0  0  0  0  0  0
   28.0504   25.0214   42.2283 H   0  0  0  0  0  0  0  0  0  0  0  0
   27.1493   30.0927   40.6878 H   0  0  0  0  0  0  0  0  0  0  0  0
   24.4089   29.5922   43.7992 H   0  0  0  0  0  0  0  0  0  0  0  0
   21.9329   24.6151   40.1433 H   0  0  0  0  0  0  0  0  0  0  0  0
   26.4916   22.6555   45.4773 H   0  0  0  0  0  0  0  0  0  0  0  0
   23.0066   29.5101   38.8215 H   0  0  0  0  0  0  0  0  0  0  0  0
   21.4951   29.4207   39.5156 H   0  0  0  0  0  0  0  0  0  0  0  0
   25.3406   28.6255   44.3631 H   0  0  0  0  0  0  0  0  0  0  0  0
   26.8510   28.9618   44.9796 H   0  0  0  0  0  0  0  0  0  0  0  0
  1 10  1  0  0  0  0
  1  2  1  0  0  0  0
  1  3  1  0  0  0  0
  1 43  1  6  0  0  0
  2 17  1  0  0  0  0
  3  4  1  0  0  0  0
  3  5  1  0  0  0  0
  3 44  1  6  0  0  0
  4 45  1  0  0  0  0
  4 46  1  0  0  0  0
  5  7  1  0  0  0  0
  5  6  1  0  0  0  0
  5 47  1  1  0  0  0
  6 48  1  0  0  0  0
  7  9  1  0  0  0  0
  7  8  1  0  0  0  0
  7 49  1  6  0  0  0
  8 50  1  0  0  0  0
  9 10  1  0  0  0  0
  9 11  1  0  0  0  0
  9 51  1  1  0  0  0
 11 35  1  0  0  0  0
 11 52  1  0  0  0  0
 11 53  1  0  0  0  0
 12 13  1  0  0  0  0
 12 14  1  0  0  0  0
 12 20  1  0  0  0  0
 12 54  1  1  0  0  0
 13 55  1  0  0  0  0
 13 56  1  0  0  0  0
 14 40  1  0  0  0  0
 14 15  1  0  0  0  0
 14 57  1  6  0  0  0
 15 16  1  0  0  0  0
 15 17  1  0  0  0  0
 15 58  1  1  0  0  0
 16 21  1  0  0  0  0
 17 18  1  0  0  0  0
 17 59  1  6  0  0  0
 18 20  1  0  0  0  0
 18 19  1  0  0  0  0
 18 60  1  1  0  0  0
 19 61  1  0  0  0  0
 19 62  1  0  0  0  0
 20 63  1  0  0  0  0
 20 64  1  0  0  0  0
 21 22  1  0  0  0  0
 21 25  1  0  0  0  0
 21 65  1  1  0  0  0
 22 36  1  0  0  0  0
 22 23  1  0  0  0  0
 22 66  1  6  0  0  0
 23 31  1  0  0  0  0
 23 24  1  0  0  0  0
 23 67  1  6  0  0  0
 24 25  1  0  0  0  0
 24 26  1  0  0  0  0
 24 68  1  1  0  0  0
 26 39  1  0  0  0  0
 26 69  1  0  0  0  0
 26 70  1  0  0  0  0
 27 28  1  0  0  0  0
 27 32  1  0  0  0  0
 27 38  1  0  0  0  0
 27 71  1  6  0  0  0
 28 29  1  0  0  0  0
 28 37  1  0  0  0  0
 28 72  1  1  0  0  0
 29 42  1  0  0  0  0
 29 30  1  0  0  0  0
 29 73  1  6  0  0  0
 30 33  1  0  0  0  0
 30 31  1  0  0  0  0
 30 74  1  6  0  0  0
 32 33  1  0  0  0  0
 32 34  1  0  0  0  0
 32 75  1  6  0  0  0
 34 41  1  0  0  0  0
 34 76  1  0  0  0  0
 34 77  1  0  0  0  0
 35 78  1  0  0  0  0
 35 79  1  0  0  0  0
 36 80  1  0  0  0  0
 37 81  1  0  0  0  0
 38 82  1  0  0  0  0
 39 83  1  0  0  0  0
 40 84  1  0  0  0  0
 41 85  1  0  0  0  0
 41 86  1  0  0  0  0
 42 87  1  0  0  0  0
 42 88  1  0  0  0  0
A    1
C1
A    2
O1
A    3
C2
A    4
N2
A    5
C3
A    6
O3
A    7
C4
A    8
O4
A    9
C5
A   10
O5
A   11
C6
A   12
C7
A   13
N7
A   14
C12
A   15
C11
A   16
O11
A   17
C10
A   18
C9
A   19
N9
A   20
C8
A   21
C13
A   22
C14
A   23
C15
A   24
C16
A   25
O16
A   26
C17
A   27
C21
A   28
C20
A   29
C19
A   30
C18
A   31
O18
A   32
C22
A   33
O22
A   34
C23
A   35
N6
A   36
O14
A   37
O20
A   38
O21
A   39
O17
A   40
O12
A   41
N19
A   42
N23
M  END
>  <InstanceId>
2A04_NMY_A_17

>  <ChemCompId>
NMY

>  <PdbId>
2A04

>  <ChainId>
A

>  <ResidueNumber>
17

>  <InsertionCode>


>  <Model>
1

>  <AltIds>


>  <MissingHeavyAtoms>
0

>  <ObservedFormula>
C23 N6 O13

>  <Name>
NEOMYCIN

>  <SystematicName>
(2R,3S,4R,5R,6R)-5-amino-2-(aminomethyl)-6-[(1R,2R,3S,4R,6S)-4,6-diamino-2-[(2S,3R,4S,5R)-4-[(2R,3R,4R,5S,6S)-3-amino-6-(aminomethyl)-4,5-dihydroxy-oxan-2-yl]oxy-3-hydroxy-5-(hydroxymethyl)oxolan-2-yl]oxy-3-hydroxy-cyclohexyl]oxy-oxane-3,4-diol

>  <Synonyms>
MYCIFRADIN; NEOMAS; PIMAVECORT; VONAMYCIN

>  <Type>
NON-POLYMER

>  <Formula>
C23 H46 N6 O13

>  <MolecularWeight>
614.644

>  <ModifiedDate>
2011-06-04

>  <Parent>


>  <OneLetterCode>


>  <SubcomponentList>


>  <AmbiguousFlag>


>  <InChI>
InChI=1S/C23H46N6O13/c24-2-7-13(32)15(34)10(28)21(37-7)40-18-6(27)1-5(26)12(31)20(18)42-23-17(36)19(9(4-30)39-23)41-22-11(29)16(35)14(33)8(3-25)38-22/h5-23,30-36H,1-4,24-29H2/t5-,6+,7-,8+,9-,10-,11-,12+,13-,14-,15-,16-,17-,18-,19-,20-,21-,22-,23+/m1/s1

>  <InChIKey>
PGBHMTALBVVCIT-VCIWKGPPSA-N

>  <SMILES>
C1[C@H]([C@@H]([C@H]([C@@H]([C@H]1N)O[C@@H]2[C@@H]([C@H]([C@@H]([C@H](O2)CN)O)O)N)O[C@H]3[C@@H]([C@@H]([C@H](O3)CO)O[C@@H]4[C@@H]([C@H]([C@@H]([C@@H](O4)CN)O)O)N)O)O)N

$$$$
