@<TRIPOS>MOLECULE
2O3Y_SPM_A_51
 40 39 0 0 0
SMALL
GASTEIGER

@<TRIPOS>ATOM
      1 N           0.8608   -0.0710   -0.0167 N.3     1  UNL1       -0.3299
      2 C           2.3191   -0.0661   -0.0212 C.3     1  UNL1       -0.0058
      3 C           2.8622    0.2379    1.3744 C.3     1  UNL1       -0.0281
      4 C           4.3918    0.2354    1.3676 C.3     1  UNL1       -0.0030
      5 N           4.9019    0.5410    2.7052 N.3     1  UNL1       -0.3159
      6 C           6.3646    0.5344    2.7192 C.3     1  UNL1       -0.0041
      7 C           6.8678    0.8432    4.1293 C.3     1  UNL1       -0.0393
      8 C           8.3972    0.8611    4.1737 C.3     1  UNL1       -0.0393
      9 C           8.9011    1.1703    5.5831 C.3     1  UNL1       -0.0041
     10 N          10.3636    1.1659    5.5962 N.3     1  UNL1       -0.3159
     11 C          10.8739    1.4700    6.9339 C.3     1  UNL1       -0.0030
     12 C          12.4040    1.4703    6.9264 C.3     1  UNL1       -0.0281
     13 C          12.9466    1.7724    8.3227 C.3     1  UNL1       -0.0058
     14 N          14.4050    1.7825    8.3169 N.3     1  UNL1       -0.3299
     15 H           0.5197   -0.2099   -0.9670 H       1  UNL1        0.1182
     16 H           0.5165    0.8422    0.2788 H       1  UNL1        0.1182
     17 H           2.6764    0.6826   -0.7370 H       1  UNL1        0.0422
     18 H           2.6761   -1.0453   -0.3577 H       1  UNL1        0.0422
     19 H           2.4914   -0.5103    2.0877 H       1  UNL1        0.0290
     20 H           2.4948    1.2162    1.7118 H       1  UNL1        0.0290
     21 H           4.7511    0.9860    0.6537 H       1  UNL1        0.0424
     22 H           4.7542   -0.7464    1.0397 H       1  UNL1        0.0424
     23 H           4.5488   -0.1480    3.3696 H       1  UNL1        0.1219
     24 H           6.7476    1.2905    2.0238 H       1  UNL1        0.0424
     25 H           6.7441   -0.4443    2.4010 H       1  UNL1        0.0424
     26 H           6.4903    0.0909    4.8333 H       1  UNL1        0.0278
     27 H           6.4811    1.8164    4.4573 H       1  UNL1        0.0278
     28 H           8.7745    1.6129    3.4690 H       1  UNL1        0.0278
     29 H           8.7839   -0.1126    3.8457 H       1  UNL1        0.0278
     30 H           8.5194    0.4134    6.2788 H       1  UNL1        0.0424
     31 H           8.5204    2.1480    5.9015 H       1  UNL1        0.0424
     32 H          10.7152    1.8565    4.9325 H       1  UNL1        0.1219
     33 H          10.5162    0.7174    7.6471 H       1  UNL1        0.0424
     34 H          10.5100    2.4500    7.2637 H       1  UNL1        0.0424
     35 H          12.7724    2.2206    6.2148 H       1  UNL1        0.0290
     36 H          12.7728    0.4935    6.5872 H       1  UNL1        0.0290
     37 H          12.5925    1.0207    9.0365 H       1  UNL1        0.0422
     38 H          12.5866    2.7496    8.6621 H       1  UNL1        0.0422
     39 H          14.7523    0.8714    8.0181 H       1  UNL1        0.1182
     40 H          14.7464    1.9195    9.2674 H       1  UNL1        0.1182
@<TRIPOS>BOND
     1     1     2    1
     2     1    15    1
     3     1    16    1
     4     2     3    1
     5     2    17    1
     6     2    18    1
     7     3     4    1
     8     3    19    1
     9     3    20    1
    10     4     5    1
    11     4    21    1
    12     4    22    1
    13     5     6    1
    14     5    23    1
    15     6     7    1
    16     6    24    1
    17     6    25    1
    18     7     8    1
    19     7    26    1
    20     7    27    1
    21     8     9    1
    22     8    28    1
    23     8    29    1
    24     9    10    1
    25     9    30    1
    26     9    31    1
    27    10    11    1
    28    10    32    1
    29    11    12    1
    30    11    33    1
    31    11    34    1
    32    12    13    1
    33    12    35    1
    34    12    36    1
    35    13    14    1
    36    13    37    1
    37    13    38    1
    38    14    39    1
    39    14    40    1
