REMARK  10 active torsions:
REMARK  status: ('A' for Active; 'I' for Inactive)
REMARK    1  A    between atoms: C_9  and  C_10 
REMARK    2  A    between atoms: C_10  and  C_11 
REMARK    3  A    between atoms: C_11  and  C_12 
REMARK       I    between atoms: C_12  and  N_14 
REMARK    4  A    between atoms: C_15  and  N_14 
REMARK    5  A    between atoms: C_15  and  C_16 
REMARK    6  A    between atoms: C_15  and  C_18 
REMARK    7  A    between atoms: C_16  and  O_17 
REMARK    8  A    between atoms: C_18  and  S_19 
REMARK    9  A    between atoms: S_19  and  C_20 
REMARK   10  A    between atoms: C_20  and  S_21 
ROOT
ATOM      1  C   UNK d   0      -4.914  -3.556  -3.576  0.00  0.00     0.218 C 
ATOM      2  O   UNK d   0      -6.077  -3.093  -3.797  0.00  0.00    -0.274 OA
ATOM      3  N   UNK d   1      -4.321  -4.529  -4.505  0.00  0.00    -0.354 N 
ATOM      4  H   UNK d   1      -3.419  -4.882  -4.328  0.00  0.00     0.163 HD
ENDROOT
BRANCH   1   5
ATOM      5  C   UNK d   0      -4.136  -3.103  -2.351  0.00  0.00     0.104 C 
BRANCH   5   6
ATOM      6  C   UNK d   0      -2.836  -2.448  -2.790  0.00  0.00     0.029 C 
BRANCH   6   7
ATOM      7  C   UNK d   0      -2.057  -1.997  -1.565  0.00  0.00     0.128 A 
ATOM      8  C   UNK d   0      -2.838  -1.033  -1.044  0.00  0.00     0.256 A 
ATOM      9  O   UNK d   0      -3.023   0.043  -1.696  0.00  0.00    -0.270 OA
ATOM     10  N   UNK d   0      -3.421  -1.189   0.144  0.00  0.00    -0.169 NA
ATOM     11  C   UNK d   0      -3.245  -2.300   0.845  0.00  0.00     0.302 A 
ATOM     12  O   UNK d   0         nan     nan     nan  0.00  0.00    -0.147 OA
ATOM     13  N   UNK d   0      -2.432  -3.330   0.326  0.00  0.00    -0.213 NA
ATOM     14  C   UNK d   0      -1.852  -3.159  -0.885  0.00  0.00     0.026 A 
ATOM     15  C   UNK d   0      -0.980  -4.254  -1.479  0.00  0.00     0.066 C 
ENDBRANCH   6   7
ENDBRANCH   5   6
ENDBRANCH   1   5
BRANCH   3  16
ATOM     16  C   UNK d   1      -5.056  -4.981  -5.695  0.00  0.00     0.117 C 
BRANCH  16  17
ATOM     17  C   UNK d   1      -4.640  -6.402  -6.038  0.00  0.00     0.190 C 
BRANCH  17  18
ATOM     18  O   UNK d   1      -3.245  -6.436  -6.302  0.00  0.00    -0.399 OA
ATOM     19  H   UNK d   1      -3.043  -5.851  -7.049  0.00  0.00     0.209 HD
ENDBRANCH  17  18
ENDBRANCH  16  17
BRANCH  16  20
ATOM     20  C   UNK d   1      -4.740  -4.064  -6.865  0.00  0.00     0.102 C 
BRANCH  20  21
ATOM     21  S   UNK d   1      -5.646  -4.622  -8.330  0.00  0.00    -0.157 SA
BRANCH  21  22
ATOM     22  C   UNK d   1      -5.269  -3.530  -9.724  0.00  0.00     0.147 C 
BRANCH  22  23
ATOM     23  S   UNK d   1      -3.491  -3.573 -10.061  0.00  0.00    -0.163 SA
ATOM     24  C   UNK d   1      -3.115  -2.481 -11.454  0.00  0.00     0.090 C 
ENDBRANCH  22  23
ENDBRANCH  21  22
ENDBRANCH  20  21
ENDBRANCH  16  20
ENDBRANCH   3  16
TORSDOF 10
