@<TRIPOS>MOLECULE
ligand.pdb
 42 42 0 0 0
SMALL
GASTEIGER

@<TRIPOS>ATOM
      1 C          -2.8382   -1.0330   -1.0442 C.2     0  UNK0        0.2552
      2 O          -3.0232    0.0425   -1.6955 O.2     0  UNK0       -0.2723
      3 N          -3.4209   -1.1886    0.1437 N.am    0  UNK0       -0.0938
      4 C          -3.2452   -2.3004    0.8448 C.1     0  UNK0        0.2279
      5 O              nan       nan       nan O.2     0  UNK0       -0.2067
      6 N          -2.4319   -3.3298    0.3260 N.am    0  UNK0       -0.1395
      7 C          -1.8516   -3.1595   -0.8846 C.2     0  UNK0        0.0301
      8 C          -0.9798   -4.2537   -1.4789 C.3     0  UNK0       -0.0269
      9 C          -2.0568   -1.9970   -1.5655 C.3     0  UNK0        0.0752
     10 H          -1.0933   -1.5594   -1.7240 H       0  UNK0        0.0454
     11 C          -2.8364   -2.4479   -2.7899 C.3     0  UNK0       -0.0285
     12 C          -4.1357   -3.1034   -2.3513 C.3     0  UNK0        0.0250
     13 C          -4.9137   -3.5558   -3.5762 C.2     0  UNK0        0.2134
     14 O          -6.0765   -3.0930   -3.7972 O.2     0  UNK0       -0.2758
     15 N          -4.3211   -4.5287   -4.5053 N.am    1  UNK1       -0.3095
     16 C          -5.0564   -4.9813   -5.6951 C.3     1  UNK1        0.0551
     17 H          -6.1074   -4.9559   -5.4959 H       1  UNK1        0.0529
     18 C          -4.6398   -6.4024   -6.0379 C.3     1  UNK1        0.0633
     19 O          -3.2450   -6.4360   -6.3022 O.3     1  UNK1       -0.3932
     20 C          -4.7402   -4.0644   -6.8654 C.3     1  UNK1        0.0150
     21 S          -5.6455   -4.6217   -8.3303 S.3     1  UNK1       -0.1481
     22 C          -5.2689   -3.5298   -9.7238 C.3     1  UNK1        0.0396
     23 S          -3.4911   -3.5727  -10.0607 S.3     1  UNK1       -0.1534
     24 C          -3.1145   -2.4808  -11.4543 C.3     1  UNK1       -0.0173
     25 H          -0.9379   -5.0825   -0.8035 H       0  UNK0        0.0288
     26 H           0.0077   -3.8747   -1.6402 H       0  UNK0        0.0288
     27 H          -1.3956   -4.5741   -2.4112 H       0  UNK0        0.0288
     28 H          -3.0547   -1.6005   -3.4056 H       0  UNK0        0.0281
     29 H          -2.2520   -3.1516   -3.3451 H       0  UNK0        0.0281
     30 H          -4.7209   -2.3997   -1.7970 H       0  UNK0        0.0359
     31 H          -3.9176   -3.9502   -1.7345 H       0  UNK0        0.0359
     32 H          -3.4194   -4.8820   -4.3284 H       1  UNK1        0.1491
     33 H          -5.1750   -6.7318   -6.9039 H       1  UNK1        0.0576
     34 H          -4.8624   -7.0479   -5.2141 H       1  UNK1        0.0576
     35 H          -3.0433   -5.8509   -7.0490 H       1  UNK1        0.2095
     36 H          -3.6892   -4.0897   -7.0645 H       1  UNK1        0.0395
     37 H          -5.0334   -3.0640   -6.6240 H       1  UNK1        0.0395
     38 H          -5.5621   -2.5294   -9.4825 H       1  UNK1        0.0489
     39 H          -5.8041   -3.8592  -10.5898 H       1  UNK1        0.0489
     40 H          -2.0635   -2.5062  -11.6534 H       1  UNK1        0.0341
     41 H          -3.4077   -1.4804  -11.2130 H       1  UNK1        0.0341
     42 H          -3.6497   -2.8102  -12.3203 H       1  UNK1        0.0341
@<TRIPOS>BOND
     1     1     2    2
     2     1     3    1
     3     1     9    1
     4     3     4    2
     5     4     5    2
     6     4     6    1
     7     6     7    2
     8     7     8    1
     9     7     9    1
    10     8    25    1
    11     8    26    1
    12     8    27    1
    13     9    11    1
    14     9    10    1
    15    11    12    1
    16    11    28    1
    17    11    29    1
    18    12    13    1
    19    12    30    1
    20    12    31    1
    21    13    14    2
    22    13    15   am
    23    15    32    1
    24    16    18    1
    25    16    20    1
    26    16    17    1
    27    16    15    1
    28    18    19    1
    29    18    33    1
    30    18    34    1
    31    19    35    1
    32    20    21    1
    33    20    36    1
    34    20    37    1
    35    21    22    1
    36    22    23    1
    37    22    38    1
    38    22    39    1
    39    23    24    1
    40    24    40    1
    41    24    41    1
    42    24    42    1
