4P20_AKN_A_101
 OpenBabel10091713573D
Coordinates from PDB:4P20:A:101 Model:1 without hydrogens
 40 42  0  0  0  0  0  0  0  0999 V2000
    3.6940   -7.1950   19.3090 C   0  0  1  0  0  0  0  0  0  0  0  0
    4.9270   -7.7570   20.1110 C   0  0  1  0  0  0  0  0  0  0  0  0
    4.7860   -7.4900   21.6380 C   0  0  2  0  0  0  0  0  0  0  0  0
    4.6900   -5.9450   21.8430 C   0  0  1  0  0  0  0  0  0  0  0  0
    3.4120   -5.4110   21.0600 C   0  0  1  0  0  0  0  0  0  0  0  0
    3.2410   -3.9030   21.1820 C   0  0  0  0  0  0  0  0  0  0  0  0
    4.5840   -5.6580   23.2540 O   0  0  0  0  0  0  0  0  0  0  0  0
    2.4970   -7.9080   19.6580 O   0  0  0  0  0  0  0  0  0  0  0  0
    3.5460   -5.7320   19.5940 O   0  0  0  0  0  0  0  0  0  0  0  0
    1.8750   -3.5430   21.6770 N   0  0  0  0  0  0  0  0  0  0  0  0
   -1.2720   -9.1940   17.7950 C   0  0  2  0  0  0  0  0  0  0  0  0
   -2.4220   -9.1990   16.9210 N   0  0  0  0  0  0  0  0  0  0  0  0
   -1.2780   -7.8760   18.6700 C   0  0  0  0  0  0  0  0  0  0  0  0
   -0.0110   -7.8540   19.6370 C   0  0  2  0  0  0  0  0  0  0  0  0
   -0.0270   -6.6230   20.4700 N   0  0  0  0  0  0  0  0  0  0  0  0
    1.3220   -7.9400   18.7580 C   0  0  2  0  0  0  0  0  0  0  0  0
    1.2800   -9.2750   17.8990 C   0  0  2  0  0  0  0  0  0  0  0  0
    2.4700   -9.3630   17.1120 O   0  0  0  0  0  0  0  0  0  0  0  0
    0.0180   -9.2850   16.9490 C   0  0  1  0  0  0  0  0  0  0  0  0
   -0.0170  -10.5180   16.1880 O   0  0  0  0  0  0  0  0  0  0  0  0
   -0.2840  -10.6150   14.8300 C   0  0  2  0  0  0  0  0  0  0  0  0
   -0.5540  -12.1280   14.5090 C   0  0  2  0  0  0  0  0  0  0  0  0
   -1.6090  -12.5920   15.2880 O   0  0  0  0  0  0  0  0  0  0  0  0
    0.7460  -13.0160   14.7160 C   0  0  1  0  0  0  0  0  0  0  0  0
    0.4700  -14.4500   14.3930 N   0  0  0  0  0  0  0  0  0  0  0  0
    1.9090  -12.4380   13.7970 C   0  0  2  0  0  0  0  0  0  0  0  0
    3.1040  -13.2160   13.9390 O   0  0  0  0  0  0  0  0  0  0  0  0
    2.1480  -10.9310   14.1980 C   0  0  2  0  0  0  0  0  0  0  0  0
    0.8700  -10.1190   14.0370 O   0  0  0  0  0  0  0  0  0  0  0  0
    3.2300  -10.3060   13.3500 C   0  0  0  0  0  0  0  0  0  0  0  0
    3.2990   -8.8760   13.5020 O   0  0  0  0  0  0  0  0  0  0  0  0
    5.0330   -9.1860   19.8450 O   0  0  0  0  0  0  0  0  0  0  0  0
    5.8910   -7.9880   22.2850 O   0  0  0  0  0  0  0  0  0  0  0  0
   -7.2460  -12.4980   15.3320 N   0  0  0  0  0  0  0  0  0  0  0  0
   -3.5530  -10.0330   17.2560 C   0  0  0  0  0  0  0  0  0  0  0  0
   -3.3920  -11.0390   18.0090 O   0  0  0  0  0  0  0  0  0  0  0  0
   -4.9430   -9.6520   16.6600 C   0  0  2  0  0  0  0  0  0  0  0  0
   -5.4810  -10.7830   15.7300 C   0  0  0  0  0  0  0  0  0  0  0  0
   -6.7800  -11.4260   16.2440 C   0  0  0  0  0  0  0  0  0  0  0  0
   -4.8950   -8.6100   15.9320 O   0  0  0  0  0  0  0  0  0  0  0  0
  1  8  1  1  0  0  0
  2  1  1  0  0  0  0
  2 32  1  1  0  0  0
  3 33  1  1  0  0  0
  3  2  1  0  0  0  0
  4  7  1  1  0  0  0
  4  5  1  0  0  0  0
  4  3  1  0  0  0  0
  5  6  1  6  0  0  0
  5  9  1  0  0  0  0
  6 10  1  0  0  0  0
  9  1  1  0  0  0  0
 11 12  1  6  0  0  0
 11 19  1  0  0  0  0
 13 11  1  0  0  0  0
 14 15  1  6  0  0  0
 14 13  1  0  0  0  0
 14 16  1  0  0  0  0
 16  8  1  1  0  0  0
 16 17  1  0  0  0  0
 17 19  1  0  0  0  0
 17 18  1  6  0  0  0
 19 20  1  1  0  0  0
 21 20  1  1  0  0  0
 21 22  1  0  0  0  0
 21 29  1  0  0  0  0
 22 23  1  1  0  0  0
 22 24  1  0  0  0  0
 24 25  1  6  0  0  0
 24 26  1  0  0  0  0
 26 27  1  1  0  0  0
 28 26  1  0  0  0  0
 28 30  1  6  0  0  0
 29 28  1  0  0  0  0
 30 31  1  0  0  0  0
 35 12  1  0  0  0  0
 35 37  1  0  0  0  0
 36 35  2  0  0  0  0
 37 40  1  6  0  0  0
 37 38  1  0  0  0  0
 38 39  1  0  0  0  0
 39 34  1  0  0  0  0
A    1
C1
A    2
C3
A    3
C4
A    4
C5
A    5
C7
A    6
C9
A    7
O6
A    8
O2
A    9
O8
A   10
N10
A   11
C11
A   12
N12
A   13
C13
A   14
C14
A   15
N15
A   16
C16
A   17
C17
A   18
O18
A   19
C19
A   20
O20
A   21
C21
A   22
C22
A   23
O23
A   24
C24
A   25
N25
A   26
C26
A   27
O27
A   28
C28
A   29
O29
A   30
C30
A   31
O31
A   32
O32
A   33
O33
A   34
N37
A   35
C35
A   36
O36
A   37
C37
A   38
C38
A   39
C39
A   40
O40
M  END
>  <InstanceId>
4P20_AKN_A_101

>  <ChemCompId>
AKN

>  <PdbId>
4P20

>  <ChainId>
A

>  <ResidueNumber>
101

>  <InsertionCode>


>  <Model>
1

>  <AltIds>


>  <MissingHeavyAtoms>
0

>  <ObservedFormula>
C22 N5 O13

>  <Name>
(2S)-N-[(1R,2S,3S,4R,5S)-4-[(2R,3R,4S,5S,6R)-6-(aminomethyl)-3,4,5-tris(oxidanyl)oxan-2-yl]oxy-5-azanyl-2-[(2S,3R,4S,5S,6R)-4-azanyl-6-(hydroxymethyl)-3,5-bis(oxidanyl)oxan-2-yl]oxy-3-oxidanyl-cyclohexyl]-4-azanyl-2-oxidanyl-butanamide

>  <SystematicName>
(2S)-N-[(1R,2S,3S,4R,5S)-4-[(2R,3R,4S,5S,6R)-6-(aminomethyl)-3,4,5-tris(oxidanyl)oxan-2-yl]oxy-5-azanyl-2-[(2S,3R,4S,5S,6R)-4-azanyl-6-(hydroxymethyl)-3,5-bis(oxidanyl)oxan-2-yl]oxy-3-oxidanyl-cyclohexyl]-4-azanyl-2-oxidanyl-butanamide

>  <Synonyms>
AMIKACIN

>  <Type>
NON-POLYMER

>  <Formula>
C22 H43 N5 O13

>  <MolecularWeight>
585.603

>  <ModifiedDate>
2014-09-05

>  <Parent>


>  <OneLetterCode>


>  <SubcomponentList>


>  <AmbiguousFlag>
N

>  <InChI>
InChI=1S/C22H43N5O13/c23-2-1-8(29)20(36)27-7-3-6(25)18(39-22-16(34)15(33)13(31)9(4-24)37-22)17(35)19(7)40-21-14(32)11(26)12(30)10(5-28)38-21/h6-19,21-22,28-35H,1-5,23-26H2,(H,27,36)/t6-,7+,8-,9+,10+,11-,12+,13+,14+,15-,16+,17-,18+,19-,21+,22+/m0/s1

>  <InChIKey>
LKCWBDHBTVXHDL-RMDFUYIESA-N

>  <SMILES>
C1[C@@H]([C@H]([C@@H]([C@H]([C@@H]1NC(=O)[C@H](CCN)O)O[C@@H]2[C@@H]([C@H]([C@@H]([C@H](O2)CO)O)N)O)O)O[C@@H]3[C@@H]([C@H]([C@@H]([C@H](O3)CN)O)O)O)N

$$$$
