REMARK  10 active torsions:
REMARK  status: ('A' for Active; 'I' for Inactive)
REMARK    1  A    between atoms: C_1  and  O_8 
REMARK    2  A    between atoms: C_5  and  C_6 
REMARK    3  A    between atoms: C_16  and  O_8 
REMARK    4  A    between atoms: C_11  and  N_12 
REMARK       I    between atoms: C_35  and  N_12 
REMARK    5  A    between atoms: C_19  and  O_20 
REMARK    6  A    between atoms: C_21  and  O_20 
REMARK    7  A    between atoms: C_28  and  C_30 
REMARK    8  A    between atoms: C_35  and  C_37 
REMARK    9  A    between atoms: C_37  and  C_38 
REMARK   10  A    between atoms: C_38  and  C_39 
ROOT
ATOM      1  C   UNL d   1      -1.272  -9.194  17.795  0.00  0.00     0.139 C 
ATOM      2  C   UNL d   1      -1.278  -7.876  18.670  0.00  0.00     0.069 C 
ATOM      3  C   UNL d   1      -0.011  -7.854  19.637  0.00  0.00     0.333 C 
ATOM      4  N   UNL d   1      -0.027  -6.623  20.470  0.00  0.00     0.619 N 
ATOM      5  C   UNL d   1       1.322  -7.940  18.758  0.00  0.00     0.188 C 
ATOM      6  C   UNL d   1       1.280  -9.275  17.899  0.00  0.00     0.210 C 
ATOM      7  O   UNL d   1       2.470  -9.363  17.112  0.00  0.00    -0.218 OA
ATOM      8  C   UNL d   1       0.018  -9.285  16.949  0.00  0.00     0.173 C 
ENDROOT
BRANCH   5   9
ATOM      9  O   UNL d   1       2.497  -7.908  19.658  0.00  0.00    -0.327 OA
BRANCH   9  10
ATOM     10  C   UNL d   1       3.694  -7.195  19.309  0.00  0.00     0.270 C 
ATOM     11  C   UNL d   1       4.927  -7.757  20.111  0.00  0.00     0.241 C 
ATOM     12  O   UNL d   1       5.033  -9.186  19.845  0.00  0.00    -0.215 OA
ATOM     13  C   UNL d   1       4.786  -7.490  21.638  0.00  0.00     0.220 C 
ATOM     14  O   UNL d   1       5.891  -7.988  22.285  0.00  0.00    -0.218 OA
ATOM     15  C   UNL d   1       4.690  -5.945  21.843  0.00  0.00     0.214 C 
ATOM     16  O   UNL d   1       4.584  -5.658  23.254  0.00  0.00    -0.218 OA
ATOM     17  C   UNL d   1       3.412  -5.411  21.060  0.00  0.00     0.190 C 
ATOM     18  O   UNL d   1       3.546  -5.732  19.594  0.00  0.00    -0.327 OA
BRANCH  17  19
ATOM     19  C   UNL d   1       3.241  -3.903  21.182  0.00  0.00     0.370 C 
ATOM     20  N   UNL d   1       1.875  -3.543  21.677  0.00  0.00     0.621 N 
ENDBRANCH  17  19
ENDBRANCH   9  10
ENDBRANCH   5   9
BRANCH   8  21
ATOM     21  O   UNL d   1      -0.017 -10.518  16.188  0.00  0.00    -0.327 OA
BRANCH  21  22
ATOM     22  C   UNL d   1      -0.284 -10.615  14.830  0.00  0.00     0.270 C 
ATOM     23  C   UNL d   1      -0.554 -12.128  14.509  0.00  0.00     0.248 C 
ATOM     24  O   UNL d   1      -1.609 -12.592  15.288  0.00  0.00    -0.216 OA
ATOM     25  C   UNL d   1       0.746 -13.016  14.716  0.00  0.00     0.369 C 
ATOM     26  N   UNL d   1       0.470 -14.450  14.393  0.00  0.00     0.622 N 
ATOM     27  C   UNL d   1       1.909 -12.438  13.797  0.00  0.00     0.221 C 
ATOM     28  O   UNL d   1       3.104 -13.216  13.939  0.00  0.00    -0.218 OA
ATOM     29  C   UNL d   1       2.148 -10.931  14.198  0.00  0.00     0.183 C 
ATOM     30  O   UNL d   1       0.870 -10.119  14.037  0.00  0.00    -0.326 OA
BRANCH  29  31
ATOM     31  C   UNL d   1       3.230 -10.306  13.350  0.00  0.00     0.214 C 
ATOM     32  O   UNL d   1       3.299  -8.876  13.502  0.00  0.00    -0.218 OA
ENDBRANCH  29  31
ENDBRANCH  21  22
ENDBRANCH   8  21
BRANCH   1  33
ATOM     33  N   UNL d   1      -2.422  -9.199  16.921  0.00  0.00    -0.231 NA
ATOM     34  C   UNL d   1      -3.553 -10.033  17.256  0.00  0.00     0.310 C 
ATOM     35  O   UNL d   1      -3.392 -11.039  18.009  0.00  0.00    -0.262 OA
BRANCH  34  36
ATOM     36  C   UNL d   1      -4.943  -9.652  16.660  0.00  0.00     0.232 C 
ATOM     37  O   UNL d   1      -4.895  -8.610  15.932  0.00  0.00    -0.286 OA
BRANCH  36  38
ATOM     38  C   UNL d   1      -5.481 -10.783  15.730  0.00  0.00     0.116 C 
BRANCH  38  39
ATOM     39  C   UNL d   1      -6.780 -11.426  16.244  0.00  0.00     0.347 C 
ATOM     40  N   UNL d   1      -7.246 -12.498  15.332  0.00  0.00     0.619 N 
ENDBRANCH  38  39
ENDBRANCH  36  38
ENDBRANCH  34  36
ENDBRANCH   1  33
TORSDOF 10
