@<TRIPOS>MOLECULE
4P20_AKN_A_101
 40 42 0 0 0
SMALL
GASTEIGER
****
Coordinates from PDB:4P20:A:101 Model:1 without hydrogens
@<TRIPOS>ATOM
      1 C           3.6940   -7.1950   19.3090 C.3     1  UNL1        0.2695
      2 C           4.9270   -7.7570   20.1110 C.3     1  UNL1        0.2406
      3 C           4.7860   -7.4900   21.6380 C.3     1  UNL1        0.2198
      4 C           4.6900   -5.9450   21.8430 C.3     1  UNL1        0.2133
      5 C           3.4120   -5.4110   21.0600 C.3     1  UNL1        0.1696
      6 C           3.2410   -3.9030   21.1820 C.3     1  UNL1        0.1415
      7 O           4.5840   -5.6580   23.2540 O.3     1  UNL1       -0.2176
      8 O           2.4970   -7.9080   19.6580 O.3     1  UNL1       -0.3269
      9 O           3.5460   -5.7320   19.5940 O.3     1  UNL1       -0.3268
     10 N           1.8750   -3.5430   21.6770 N.3     1  UNL1       -0.1286
     11 C          -1.2720   -9.1940   17.7950 C.3     1  UNL1        0.1266
     12 N          -2.4220   -9.1990   16.9210 N.am    1  UNL1       -0.2024
     13 C          -1.2780   -7.8760   18.6700 C.3     1  UNL1        0.0458
     14 C          -0.0110   -7.8540   19.6370 C.3     1  UNL1        0.1234
     15 N          -0.0270   -6.6230   20.4700 N.3     1  UNL1       -0.1302
     16 C           1.3220   -7.9400   18.7580 C.3     1  UNL1        0.1680
     17 C           1.2800   -9.2750   17.8990 C.3     1  UNL1        0.2090
     18 O           2.4700   -9.3630   17.1120 O.3     1  UNL1       -0.2178
     19 C           0.0180   -9.2850   16.9490 C.3     1  UNL1        0.1703
     20 O          -0.0170  -10.5180   16.1880 O.3     1  UNL1       -0.3266
     21 C          -0.2840  -10.6150   14.8300 C.3     1  UNL1        0.2684
     22 C          -0.5540  -12.1280   14.5090 C.3     1  UNL1        0.2279
     23 O          -1.6090  -12.5920   15.2880 O.3     1  UNL1       -0.2161
     24 C           0.7460  -13.0160   14.7160 C.3     1  UNL1        0.1599
     25 N           0.4700  -14.4500   14.3930 N.3     1  UNL1       -0.1272
     26 C           1.9090  -12.4380   13.7970 C.3     1  UNL1        0.2017
     27 O           3.1040  -13.2160   13.9390 O.3     1  UNL1       -0.2188
     28 C           2.1480  -10.9310   14.1980 C.3     1  UNL1        0.1824
     29 O           0.8700  -10.1190   14.0370 O.3     1  UNL1       -0.3257
     30 C           3.2300  -10.3060   13.3500 C.3     1  UNL1        0.2142
     31 O           3.2990   -8.8760   13.5020 O.3     1  UNL1       -0.2176
     32 O           5.0330   -9.1860   19.8450 O.3     1  UNL1       -0.2149
     33 O           5.8910   -7.9880   22.2850 O.3     1  UNL1       -0.2174
     34 N          -7.2460  -12.4980   15.3320 N.3     1  UNL1       -0.1313
     35 C          -3.5530  -10.0330   17.2560 C.2     1  UNL1        0.2719
     36 O          -3.3920  -11.0390   18.0090 O.2     1  UNL1       -0.2706
     37 C          -4.9430   -9.6520   16.6600 C.3     1  UNL1        0.2305
     38 C          -5.4810  -10.7830   15.7300 C.3     1  UNL1        0.0630
     39 C          -6.7800  -11.4260   16.2440 C.3     1  UNL1        0.1124
     40 O          -4.8950   -8.6100   15.9320 O.3     1  UNL1       -0.2131
@<TRIPOS>BOND
     1     1     8    1
     2     2     1    1
     3     2    32    1
     4     3    33    1
     5     3     2    1
     6     4     7    1
     7     4     5    1
     8     4     3    1
     9     5     6    1
    10     5     9    1
    11     6    10    1
    12     9     1    1
    13    11    12    1
    14    11    19    1
    15    13    11    1
    16    14    15    1
    17    14    13    1
    18    14    16    1
    19    16     8    1
    20    16    17    1
    21    17    19    1
    22    17    18    1
    23    19    20    1
    24    21    20    1
    25    21    22    1
    26    21    29    1
    27    22    23    1
    28    22    24    1
    29    24    25    1
    30    24    26    1
    31    26    27    1
    32    28    26    1
    33    28    30    1
    34    29    28    1
    35    30    31    1
    36    35    12   am
    37    35    37    1
    38    36    35    2
    39    37    40    1
    40    37    38    1
    41    38    39    1
    42    39    34    1
