@<TRIPOS>MOLECULE
2ET3_LLL_A_50
 70 72 0 0 0
SMALL
GASTEIGER

@<TRIPOS>ATOM
      1 C           3.8373   -0.6874   -4.9060 C.3     1  UNL1        0.1750
      2 H           3.1162   -1.1671   -5.5700 H       1  UNL1        0.0926
      3 O           3.7880   -1.2990   -3.6184 O.3     1  UNL1       -0.3423
      4 C           2.5341   -1.8475   -3.1848 C.3     1  UNL1        0.1051
      5 H           1.7247   -1.1257   -3.3560 H       1  UNL1        0.0639
      6 C           2.7198   -2.0936   -1.6672 C.3     1  UNL1        0.0355
      7 H           2.9465   -1.1286   -1.1999 H       1  UNL1        0.0485
      8 C           3.9486   -2.9835   -1.4243 C.3     1  UNL1       -0.0175
      9 C           3.9968   -4.2729   -2.2585 C.3     1  UNL1        0.0355
     10 H           5.0592   -4.4601   -2.4772 H       1  UNL1        0.0485
     11 N           3.5910   -5.3810   -1.3709 N.3     1  UNL1       -0.3250
     12 C           3.2143   -4.3266   -3.6044 C.3     1  UNL1        0.1051
     13 H           2.6658   -5.2701   -3.5984 H       1  UNL1        0.0639
     14 C           2.2265   -3.1757   -3.9039 C.3     1  UNL1        0.1104
     15 H           2.2060   -2.9969   -4.9798 H       1  UNL1        0.0646
     16 O           0.8840   -3.5606   -3.5527 O.3     1  UNL1       -0.3865
     17 O           4.1994   -4.4038   -4.6584 O.3     1  UNL1       -0.3413
     18 C           3.8194   -5.0227   -5.9087 C.3     1  UNL1        0.1870
     19 H           3.1911   -4.3033   -6.4503 H       1  UNL1        0.0937
     20 C           3.0057   -6.3317   -5.7780 C.3     1  UNL1        0.1239
     21 H           2.0279   -6.1115   -5.3331 H       1  UNL1        0.0661
     22 O           3.6914   -7.2095   -4.8773 O.3     1  UNL1       -0.3851
     23 C           2.7991   -7.0877   -7.1167 C.3     1  UNL1        0.0692
     24 H           2.8500   -8.1639   -6.8881 H       1  UNL1        0.0517
     25 N           1.4849   -6.8224   -7.7230 N.3     1  UNL1       -0.3115
     26 C           0.3699   -7.4583   -7.0438 C.3     1  UNL1       -0.0154
     27 C           3.9311   -6.7836   -8.1391 C.3     1  UNL1        0.1043
     28 O           3.5823   -5.6713   -8.9756 O.3     1  UNL1       -0.3849
     29 C           5.2024   -6.3893   -7.3954 C.3     1  UNL1        0.0808
     30 O           5.0184   -5.1621   -6.6933 O.3     1  UNL1       -0.3459
     31 C           4.1863   -7.9861   -9.0521 C.3     1  UNL1       -0.0323
     32 N           1.5333   -2.6019   -0.9781 N.3     1  UNL1       -0.3250
     33 C           5.2762   -0.8862   -5.4359 C.3     1  UNL1        0.0566
     34 H           5.3899   -1.9495   -5.6648 H       1  UNL1        0.0508
     35 N           6.2918   -0.5593   -4.4305 N.3     1  UNL1       -0.3232
     36 C           5.5582   -0.0497   -6.6855 C.3     1  UNL1       -0.0307
     37 C           4.2845    0.5679   -7.2286 C.3     1  UNL1       -0.0237
     38 C           3.6103    1.3941   -6.1156 C.3     1  UNL1        0.0740
     39 H           4.2238    2.2870   -5.9312 H       1  UNL1        0.0609
     40 O           3.5162    0.6992   -4.8523 O.3     1  UNL1       -0.3453
     41 C           2.2120    1.8181   -6.5676 C.3     1  UNL1        0.0196
     42 N           1.6480    2.8031   -5.6531 N.3     1  UNL1       -0.3277
     43 H           4.8497   -2.3988   -1.6596 H       1  UNL1        0.0297
     44 H           4.0346   -3.1947   -0.3499 H       1  UNL1        0.0297
     45 H           3.9274   -6.2625   -1.7506 H       1  UNL1        0.1185
     46 H           2.5789   -5.4389   -1.3289 H       1  UNL1        0.1185
     47 H           0.8208   -4.5323   -3.5419 H       1  UNL1        0.2100
     48 H           3.0092   -7.7235   -4.4126 H       1  UNL1        0.2101
     49 H           1.3219   -5.8103   -7.7545 H       1  UNL1        0.1221
     50 H           0.6544   -8.3526   -6.4766 H       1  UNL1        0.0388
     51 H          -0.1126   -6.7558   -6.3576 H       1  UNL1        0.0388
     52 H          -0.3748   -7.7605   -7.7853 H       1  UNL1        0.0388
     53 H           2.8205   -5.9451   -9.5126 H       1  UNL1        0.2103
     54 H           5.5457   -7.1535   -6.6915 H       1  UNL1        0.0590
     55 H           6.0321   -6.2187   -8.0923 H       1  UNL1        0.0590
     56 H           3.2764   -8.2745   -9.5869 H       1  UNL1        0.0258
     57 H           4.9605   -7.7779   -9.8021 H       1  UNL1        0.0258
     58 H           4.5238   -8.8543   -8.4742 H       1  UNL1        0.0258
     59 H           1.8102   -3.1984   -0.1962 H       1  UNL1        0.1185
     60 H           0.9796   -3.1932   -1.5990 H       1  UNL1        0.1185
     61 H           5.9865   -0.8502   -3.5008 H       1  UNL1        0.1186
     62 H           7.1432   -1.0869   -4.6243 H       1  UNL1        0.1186
     63 H           6.2722    0.7575   -6.4665 H       1  UNL1        0.0283
     64 H           6.0379   -0.6771   -7.4442 H       1  UNL1        0.0283
     65 H           3.6099   -0.2203   -7.5973 H       1  UNL1        0.0291
     66 H           4.5218    1.2136   -8.0864 H       1  UNL1        0.0291
     67 H           2.2563    2.2617   -7.5708 H       1  UNL1        0.0447
     68 H           1.5448    0.9512   -6.6190 H       1  UNL1        0.0447
     69 H           0.7562    3.1310   -6.0196 H       1  UNL1        0.1183
     70 H           2.2524    3.6230   -5.6173 H       1  UNL1        0.1183
@<TRIPOS>BOND
     1     1     2    1
     2     3     1    1
     3     4     3    1
     4     4     5    1
     5     6     4    1
     6     6     7    1
     7     8     6    1
     8     9     8    1
     9     9    10    1
    10    11     9    1
    11    12     9    1
    12    12    13    1
    13    14    12    1
    14    14    15    1
    15    14     4    1
    16    16    14    1
    17    17    12    1
    18    18    17    1
    19    18    19    1
    20    20    18    1
    21    20    21    1
    22    22    20    1
    23    23    20    1
    24    23    24    1
    25    25    23    1
    26    26    25    1
    27    27    23    1
    28    28    27    1
    29    29    27    1
    30    30    29    1
    31    30    18    1
    32    31    27    1
    33    32     6    1
    34    33     1    1
    35    33    34    1
    36    35    33    1
    37    36    33    1
    38    37    36    1
    39    38    37    1
    40    38    39    1
    41    40    38    1
    42    40     1    1
    43    41    38    1
    44    42    41    1
    45     8    43    1
    46     8    44    1
    47    11    45    1
    48    11    46    1
    49    16    47    1
    50    22    48    1
    51    25    49    1
    52    26    50    1
    53    26    51    1
    54    26    52    1
    55    28    53    1
    56    29    54    1
    57    29    55    1
    58    31    56    1
    59    31    57    1
    60    31    58    1
    61    32    59    1
    62    32    60    1
    63    35    61    1
    64    35    62    1
    65    36    63    1
    66    36    64    1
    67    37    65    1
    68    37    66    1
    69    41    67    1
    70    41    68    1
    71    42    69    1
    72    42    70    1
