REMARK  13 active torsions:
REMARK  status: ('A' for Active; 'I' for Inactive)
REMARK    1  A    between atoms: O_2  and  C_1 
REMARK    2  A    between atoms: C_3  and  O_2 
REMARK    3  A    between atoms: N_23  and  C_4 
REMARK    4  A    between atoms: N_7  and  C_6 
REMARK    5  A    between atoms: O_11  and  C_8 
REMARK    6  A    between atoms: O_10  and  C_9 
REMARK    7  A    between atoms: C_12  and  O_11 
REMARK    8  A    between atoms: O_14  and  C_13 
REMARK    9  A    between atoms: N_16  and  C_15 
REMARK   10  A    between atoms: O_19  and  C_18 
REMARK   11  A    between atoms: N_25  and  C_24 
REMARK   12  A    between atoms: C_30  and  C_28 
REMARK   13  A    between atoms: N_31  and  C_30 
ROOT
ATOM      1  C   UNL d   1       2.534  -1.847  -3.185  0.00  0.00     0.189 C 
ATOM      2  C   UNL d   1       2.720  -2.094  -1.667  0.00  0.00     0.251 C 
ATOM      3  C   UNL d   1       3.949  -2.983  -1.424  0.00  0.00     0.076 C 
ATOM      4  C   UNL d   1       3.997  -4.273  -2.259  0.00  0.00     0.251 C 
ATOM      5  C   UNL d   1       3.214  -4.327  -3.604  0.00  0.00     0.189 C 
ATOM      6  C   UNL d   1       2.227  -3.176  -3.904  0.00  0.00     0.180 C 
ENDROOT
BRANCH   5   7
ATOM      7  O   UNL d   1       4.199  -4.404  -4.658  0.00  0.00    -0.348 OA
BRANCH   7   8
ATOM      8  C   UNL d   1       3.819  -5.023  -5.909  0.00  0.00     0.291 C 
ATOM      9  C   UNL d   1       3.006  -6.332  -5.778  0.00  0.00     0.209 C 
ATOM     10  C   UNL d   1       2.799  -7.088  -7.117  0.00  0.00     0.288 C 
ATOM     11  C   UNL d   1       3.931  -6.784  -8.139  0.00  0.00     0.109 C 
ATOM     12  C   UNL d   1       5.202  -6.389  -7.395  0.00  0.00     0.210 C 
ATOM     13  C   UNL d   1       4.186  -7.986  -9.052  0.00  0.00     0.050 C 
ATOM     14  O   UNL d   1       5.018  -5.162  -6.693  0.00  0.00    -0.356 OA
BRANCH   9  15
ATOM     15  O   UNL d   1       3.691  -7.210  -4.877  0.00  0.00    -0.388 OA
ATOM     16  H   UNL d   1       3.009  -7.723  -4.413  0.00  0.00     0.210 HD
ENDBRANCH   9  15
BRANCH  10  17
ATOM     17  N   UNL d   1       1.485  -6.822  -7.723  0.00  0.00     0.089 N 
ATOM     18  C   UNL d   1       0.370  -7.458  -7.044  0.00  0.00     0.307 C 
ATOM     19  H   UNL d   1       1.322  -5.810  -7.755  0.00  0.00     0.316 HD
ENDBRANCH  10  17
BRANCH  11  20
ATOM     20  O   UNL d   1       3.582  -5.671  -8.976  0.00  0.00    -0.386 OA
ATOM     21  H   UNL d   1       2.821  -5.945  -9.513  0.00  0.00     0.210 HD
ENDBRANCH  11  20
ENDBRANCH   7   8
ENDBRANCH   5   7
BRANCH   4  22
ATOM     22  N   UNL d   1       3.591  -5.381  -1.371  0.00  0.00     0.085 N 
ATOM     23  H   UNL d   1       3.927  -6.263  -1.751  0.00  0.00     0.313 HD
ATOM     24  H   UNL d   1       2.579  -5.439  -1.329  0.00  0.00     0.313 HD
ENDBRANCH   4  22
BRANCH   6  25
ATOM     25  O   UNL d   1       0.884  -3.561  -3.553  0.00  0.00    -0.390 OA
ATOM     26  H   UNL d   1       0.821  -4.532  -3.542  0.00  0.00     0.210 HD
ENDBRANCH   6  25
BRANCH   1  27
ATOM     27  O   UNL d   1       3.788  -1.299  -3.618  0.00  0.00    -0.349 OA
BRANCH  27  28
ATOM     28  C   UNL d   1       3.837  -0.687  -4.906  0.00  0.00     0.293 C 
ATOM     29  C   UNL d   1       5.276  -0.886  -5.436  0.00  0.00     0.272 C 
ATOM     30  C   UNL d   1       5.558  -0.050  -6.686  0.00  0.00     0.043 C 
ATOM     31  C   UNL d   1       4.285   0.568  -7.229  0.00  0.00     0.036 C 
ATOM     32  C   UNL d   1       3.610   1.394  -6.116  0.00  0.00     0.152 C 
ATOM     33  O   UNL d   1       3.516   0.699  -4.852  0.00  0.00    -0.352 OA
BRANCH  29  34
ATOM     34  N   UNL d   1       6.292  -0.559  -4.431  0.00  0.00     0.087 N 
ATOM     35  H   UNL d   1       5.987  -0.850  -3.501  0.00  0.00     0.313 HD
ATOM     36  H   UNL d   1       7.143  -1.087  -4.624  0.00  0.00     0.313 HD
ENDBRANCH  29  34
BRANCH  32  37
ATOM     37  C   UNL d   1       2.212   1.818  -6.568  0.00  0.00     0.298 C 
BRANCH  37  38
ATOM     38  N   UNL d   1       1.648   2.803  -5.653  0.00  0.00     0.080 N 
ATOM     39  H   UNL d   1       0.756   3.131  -6.020  0.00  0.00     0.312 HD
ATOM     40  H   UNL d   1       2.252   3.623  -5.617  0.00  0.00     0.312 HD
ENDBRANCH  37  38
ENDBRANCH  32  37
ENDBRANCH  27  28
ENDBRANCH   1  27
BRANCH   2  41
ATOM     41  N   UNL d   1       1.533  -2.602  -0.978  0.00  0.00     0.085 N 
ATOM     42  H   UNL d   1       1.810  -3.198  -0.196  0.00  0.00     0.313 HD
ATOM     43  H   UNL d   1       0.980  -3.193  -1.599  0.00  0.00     0.313 HD
ENDBRANCH   2  41
TORSDOF 13
