2ET3_LLL_A_50
  1228              3D

 70 72  0  0  0  0  0  0  0  0999 V2000
    3.8373   -0.6874   -4.9060 C   0  0  0  0  0  0  0  0  0  0  0  0
    3.1162   -1.1671   -5.5700 H   0  0  0  0  0  0  0  0  0  0  0  0
    3.7880   -1.2990   -3.6184 O   0  0  0  0  0  0  0  0  0  0  0  0
    2.5341   -1.8475   -3.1848 C   0  0  0  0  0  0  0  0  0  0  0  0
    1.7247   -1.1257   -3.3560 H   0  0  0  0  0  0  0  0  0  0  0  0
    2.7198   -2.0936   -1.6672 C   0  0  0  0  0  0  0  0  0  0  0  0
    2.9465   -1.1286   -1.1999 H   0  0  0  0  0  0  0  0  0  0  0  0
    3.9486   -2.9835   -1.4243 C   0  0  0  0  0  0  0  0  0  0  0  0
    3.9968   -4.2729   -2.2585 C   0  0  0  0  0  0  0  0  0  0  0  0
    5.0592   -4.4601   -2.4772 H   0  0  0  0  0  0  0  0  0  0  0  0
    3.5910   -5.3810   -1.3709 N   0  0  0  0  0  0  0  0  0  0  0  0
    3.2143   -4.3266   -3.6044 C   0  0  0  0  0  0  0  0  0  0  0  0
    2.6658   -5.2701   -3.5984 H   0  0  0  0  0  0  0  0  0  0  0  0
    2.2265   -3.1757   -3.9039 C   0  0  0  0  0  0  0  0  0  0  0  0
    2.2060   -2.9969   -4.9798 H   0  0  0  0  0  0  0  0  0  0  0  0
    0.8840   -3.5606   -3.5527 O   0  0  0  0  0  0  0  0  0  0  0  0
    4.1994   -4.4038   -4.6584 O   0  0  0  0  0  0  0  0  0  0  0  0
    3.8194   -5.0227   -5.9087 C   0  0  0  0  0  0  0  0  0  0  0  0
    3.1911   -4.3033   -6.4503 H   0  0  0  0  0  0  0  0  0  0  0  0
    3.0057   -6.3317   -5.7780 C   0  0  0  0  0  0  0  0  0  0  0  0
    2.0279   -6.1115   -5.3331 H   0  0  0  0  0  0  0  0  0  0  0  0
    3.6914   -7.2095   -4.8773 O   0  0  0  0  0  0  0  0  0  0  0  0
    2.7991   -7.0877   -7.1167 C   0  0  0  0  0  0  0  0  0  0  0  0
    2.8500   -8.1639   -6.8881 H   0  0  0  0  0  0  0  0  0  0  0  0
    1.4849   -6.8224   -7.7230 N   0  0  0  0  0  0  0  0  0  0  0  0
    0.3699   -7.4583   -7.0438 C   0  0  0  0  0  0  0  0  0  0  0  0
    3.9311   -6.7836   -8.1391 C   0  0  0  0  0  0  0  0  0  0  0  0
    3.5823   -5.6713   -8.9756 O   0  0  0  0  0  0  0  0  0  0  0  0
    5.2024   -6.3893   -7.3954 C   0  0  0  0  0  0  0  0  0  0  0  0
    5.0184   -5.1621   -6.6933 O   0  0  0  0  0  0  0  0  0  0  0  0
    4.1863   -7.9861   -9.0521 C   0  0  0  0  0  0  0  0  0  0  0  0
    1.5333   -2.6019   -0.9781 N   0  0  0  0  0  0  0  0  0  0  0  0
    5.2762   -0.8862   -5.4359 C   0  0  0  0  0  0  0  0  0  0  0  0
    5.3899   -1.9495   -5.6648 H   0  0  0  0  0  0  0  0  0  0  0  0
    6.2918   -0.5593   -4.4305 N   0  0  0  0  0  0  0  0  0  0  0  0
    5.5582   -0.0497   -6.6855 C   0  0  0  0  0  0  0  0  0  0  0  0
    4.2845    0.5679   -7.2286 C   0  0  0  0  0  0  0  0  0  0  0  0
    3.6103    1.3941   -6.1156 C   0  0  0  0  0  0  0  0  0  0  0  0
    4.2238    2.2870   -5.9312 H   0  0  0  0  0  0  0  0  0  0  0  0
    3.5162    0.6992   -4.8523 O   0  0  0  0  0  0  0  0  0  0  0  0
    2.2120    1.8181   -6.5676 C   0  0  0  0  0  0  0  0  0  0  0  0
    1.6480    2.8031   -5.6531 N   0  0  0  0  0  0  0  0  0  0  0  0
    4.8497   -2.3988   -1.6596 H   0  0  0  0  0  0  0  0  0  0  0  0
    4.0346   -3.1947   -0.3499 H   0  0  0  0  0  0  0  0  0  0  0  0
    3.9274   -6.2625   -1.7506 H   0  0  0  0  0  0  0  0  0  0  0  0
    2.5789   -5.4389   -1.3289 H   0  0  0  0  0  0  0  0  0  0  0  0
    0.8208   -4.5323   -3.5419 H   0  0  0  0  0  0  0  0  0  0  0  0
    3.0092   -7.7235   -4.4126 H   0  0  0  0  0  0  0  0  0  0  0  0
    1.3219   -5.8103   -7.7545 H   0  0  0  0  0  0  0  0  0  0  0  0
    0.6544   -8.3526   -6.4766 H   0  0  0  0  0  0  0  0  0  0  0  0
   -0.1126   -6.7558   -6.3576 H   0  0  0  0  0  0  0  0  0  0  0  0
   -0.3748   -7.7605   -7.7853 H   0  0  0  0  0  0  0  0  0  0  0  0
    2.8205   -5.9451   -9.5126 H   0  0  0  0  0  0  0  0  0  0  0  0
    5.5457   -7.1535   -6.6915 H   0  0  0  0  0  0  0  0  0  0  0  0
    6.0321   -6.2187   -8.0923 H   0  0  0  0  0  0  0  0  0  0  0  0
    3.2764   -8.2745   -9.5869 H   0  0  0  0  0  0  0  0  0  0  0  0
    4.9605   -7.7779   -9.8021 H   0  0  0  0  0  0  0  0  0  0  0  0
    4.5238   -8.8543   -8.4742 H   0  0  0  0  0  0  0  0  0  0  0  0
    1.8102   -3.1984   -0.1962 H   0  0  0  0  0  0  0  0  0  0  0  0
    0.9796   -3.1932   -1.5990 H   0  0  0  0  0  0  0  0  0  0  0  0
    5.9865   -0.8502   -3.5008 H   0  0  0  0  0  0  0  0  0  0  0  0
    7.1432   -1.0869   -4.6243 H   0  0  0  0  0  0  0  0  0  0  0  0
    6.2722    0.7575   -6.4665 H   0  0  0  0  0  0  0  0  0  0  0  0
    6.0379   -0.6771   -7.4442 H   0  0  0  0  0  0  0  0  0  0  0  0
    3.6099   -0.2203   -7.5973 H   0  0  0  0  0  0  0  0  0  0  0  0
    4.5218    1.2136   -8.0864 H   0  0  0  0  0  0  0  0  0  0  0  0
    2.2563    2.2617   -7.5708 H   0  0  0  0  0  0  0  0  0  0  0  0
    1.5448    0.9512   -6.6190 H   0  0  0  0  0  0  0  0  0  0  0  0
    0.7562    3.1310   -6.0196 H   0  0  0  0  0  0  0  0  0  0  0  0
    2.2524    3.6230   -5.6173 H   0  0  0  0  0  0  0  0  0  0  0  0
  1  2  1  0  0  0  0
  3  1  1  0  0  0  0
  4  3  1  0  0  0  0
  4  5  1  0  0  0  0
  6  4  1  0  0  0  0
  6  7  1  0  0  0  0
  8  6  1  0  0  0  0
  9  8  1  0  0  0  0
  9 10  1  0  0  0  0
 11  9  1  0  0  0  0
 12  9  1  0  0  0  0
 12 13  1  0  0  0  0
 14 12  1  0  0  0  0
 14 15  1  0  0  0  0
 14  4  1  0  0  0  0
 16 14  1  0  0  0  0
 17 12  1  0  0  0  0
 18 17  1  0  0  0  0
 18 19  1  0  0  0  0
 20 18  1  0  0  0  0
 20 21  1  0  0  0  0
 22 20  1  0  0  0  0
 23 20  1  0  0  0  0
 23 24  1  0  0  0  0
 25 23  1  0  0  0  0
 26 25  1  0  0  0  0
 27 23  1  0  0  0  0
 28 27  1  0  0  0  0
 29 27  1  0  0  0  0
 30 29  1  0  0  0  0
 30 18  1  0  0  0  0
 31 27  1  0  0  0  0
 32  6  1  0  0  0  0
 33  1  1  0  0  0  0
 33 34  1  0  0  0  0
 35 33  1  0  0  0  0
 36 33  1  0  0  0  0
 37 36  1  0  0  0  0
 38 37  1  0  0  0  0
 38 39  1  0  0  0  0
 40 38  1  0  0  0  0
 40  1  1  0  0  0  0
 41 38  1  0  0  0  0
 42 41  1  0  0  0  0
  8 43  1  0  0  0  0
  8 44  1  0  0  0  0
 11 45  1  0  0  0  0
 11 46  1  0  0  0  0
 16 47  1  0  0  0  0
 22 48  1  0  0  0  0
 25 49  1  0  0  0  0
 26 50  1  0  0  0  0
 26 51  1  0  0  0  0
 26 52  1  0  0  0  0
 28 53  1  0  0  0  0
 29 54  1  0  0  0  0
 29 55  1  0  0  0  0
 31 56  1  0  0  0  0
 31 57  1  0  0  0  0
 31 58  1  0  0  0  0
 32 59  1  0  0  0  0
 32 60  1  0  0  0  0
 35 61  1  0  0  0  0
 35 62  1  0  0  0  0
 36 63  1  0  0  0  0
 36 64  1  0  0  0  0
 37 65  1  0  0  0  0
 37 66  1  0  0  0  0
 41 67  1  0  0  0  0
 41 68  1  0  0  0  0
 42 69  1  0  0  0  0
 42 70  1  0  0  0  0
M  END
>  <energy>
110.11895548674171

$$$$
