@<TRIPOS>MOLECULE
2O3W_PAR_B_101
 87 90 0 0 0
SMALL
GASTEIGER

@<TRIPOS>ATOM
      1 C           2.9927    1.1397   -1.2198 C.3     1  UNL1        0.1776
      2 H           1.9867    1.5318   -1.0262 H       1  UNL1        0.0927
      3 O           2.7593   -0.2730   -1.2743 O.3     1  UNL1       -0.3422
      4 C           3.5634   -1.1818   -0.5299 C.3     1  UNL1        0.1055
      5 H           4.4030   -0.6731   -0.0782 H       1  UNL1        0.0639
      6 C           4.0927   -2.2344   -1.5292 C.3     1  UNL1        0.0355
      7 H           4.2058   -1.7622   -2.5126 H       1  UNL1        0.0485
      8 C           3.1266   -3.4185   -1.6943 C.3     1  UNL1       -0.0175
      9 C           2.7966   -4.1375   -0.3726 C.3     1  UNL1        0.0351
     10 H           1.7553   -4.4786   -0.4449 H       1  UNL1        0.0485
     11 N           3.5994   -5.3604   -0.2239 N.3     1  UNL1       -0.3250
     12 C           2.9496   -3.2567    0.8792 C.3     1  UNL1        0.0990
     13 H           3.9580   -3.3457    1.2941 H       1  UNL1        0.0636
     14 C           2.6503   -1.7907    0.5605 C.3     1  UNL1        0.1166
     15 H           1.6286   -1.7744    0.1592 H       1  UNL1        0.0650
     16 O           2.5269   -0.9466    1.7063 O.3     1  UNL1       -0.3402
     17 C           3.6224   -0.7279    2.5988 C.3     1  UNL1        0.1884
     18 H           3.6018    0.3485    2.7961 H       1  UNL1        0.0938
     19 C           3.4257   -1.5066    3.8895 C.3     1  UNL1        0.1345
     20 H           2.4773   -2.0545    3.9429 H       1  UNL1        0.0671
     21 O           3.4413   -0.5594    4.9629 O.3     1  UNL1       -0.3841
     22 C           4.6406   -2.4386    3.9917 C.3     1  UNL1        0.1205
     23 H           4.4266   -3.3892    3.4974 H       1  UNL1        0.0651
     24 O           4.8746   -2.6284    5.3815 O.3     1  UNL1       -0.3410
     25 C           5.8259   -3.5850    5.8135 C.3     1  UNL1        0.1776
     26 H           6.7749   -3.3447    5.3376 H       1  UNL1        0.0927
     27 C           5.4582   -5.0669    5.5531 C.3     1  UNL1        0.0853
     28 H           5.9139   -5.3533    4.5959 H       1  UNL1        0.0535
     29 N           4.0138   -5.3008    5.4129 N.3     1  UNL1       -0.3211
     30 C           5.9992   -5.9798    6.6722 C.3     1  UNL1        0.1033
     31 H           5.2885   -6.0215    7.5106 H       1  UNL1        0.0637
     32 O           6.1373   -7.3028    6.1567 O.3     1  UNL1       -0.3874
     33 C           7.3529   -5.4872    7.1950 C.3     1  UNL1        0.1100
     34 H           8.0924   -5.5789    6.3903 H       1  UNL1        0.0646
     35 O           7.8105   -6.3499    8.2337 O.3     1  UNL1       -0.3866
     36 C           7.2931   -4.0060    7.6413 C.3     1  UNL1        0.1022
     37 H           8.1045   -3.4641    7.1331 H       1  UNL1        0.0636
     38 O           6.0418   -3.4234    7.2283 O.3     1  UNL1       -0.3425
     39 C           7.4451   -3.7745    9.1488 C.3     1  UNL1        0.0222
     40 N           7.5272   -2.3467    9.4533 N.3     1  UNL1       -0.3276
     41 C           5.6982   -1.6662    3.1993 C.3     1  UNL1        0.1135
     42 H           6.1796   -0.8948    3.8118 H       1  UNL1        0.0647
     43 O           4.9460   -1.0125    2.1446 O.3     1  UNL1       -0.3405
     44 C           6.7517   -2.4663    2.4312 C.3     1  UNL1        0.0730
     45 O           7.5131   -3.3292    3.2483 O.3     1  UNL1       -0.3924
     46 O           2.0199   -3.7180    1.8591 O.3     1  UNL1       -0.3876
     47 N           5.4258   -2.6996   -1.1349 N.3     1  UNL1       -0.3250
     48 C           3.3867    1.6738   -2.6085 C.3     1  UNL1        0.0853
     49 H           3.0863    2.7308   -2.6611 H       1  UNL1        0.0535
     50 N           2.6880    0.9474   -3.6702 N.3     1  UNL1       -0.3211
     51 C           4.9017    1.6134   -2.7995 C.3     1  UNL1        0.1033
     52 H           5.2645    0.5795   -2.7740 H       1  UNL1        0.0637
     53 O           5.2606    2.1643   -4.0648 O.3     1  UNL1       -0.3874
     54 C           5.5454    2.4263   -1.6793 C.3     1  UNL1        0.1109
     55 H           5.2185    3.4711   -1.7342 H       1  UNL1        0.0646
     56 O           6.9613    2.4316   -1.8562 O.3     1  UNL1       -0.3865
     57 C           5.1819    1.8257   -0.3183 C.3     1  UNL1        0.1129
     58 H           5.6614    0.8496   -0.2113 H       1  UNL1        0.0647
     59 O           3.7645    1.6728   -0.1397 O.3     1  UNL1       -0.3415
     60 C           5.6688    2.7002    0.8438 C.3     1  UNL1        0.0730
     61 O           7.0693    2.5420    1.0295 O.3     1  UNL1       -0.3924
     62 H           2.1879   -3.0338   -2.1147 H       1  UNL1        0.0297
     63 H           3.5221   -4.1175   -2.4430 H       1  UNL1        0.0297
     64 H           3.5015   -5.9366   -1.0576 H       1  UNL1        0.1185
     65 H           4.5861   -5.1139   -0.1659 H       1  UNL1        0.1185
     66 H           2.5345   -0.2186    5.0516 H       1  UNL1        0.2101
     67 H           3.7982   -6.2635    5.6739 H       1  UNL1        0.1187
     68 H           3.7593   -5.2389    4.4272 H       1  UNL1        0.1187
     69 H           6.1646   -7.9082    6.9171 H       1  UNL1        0.2100
     70 H           7.0893   -6.4548    8.8783 H       1  UNL1        0.2100
     71 H           6.5944   -4.2037    9.6894 H       1  UNL1        0.0448
     72 H           8.3573   -4.2523    9.5213 H       1  UNL1        0.0448
     73 H           7.7153   -2.2264   10.4484 H       1  UNL1        0.1183
     74 H           8.3286   -1.9397    8.9713 H       1  UNL1        0.1183
     75 H           6.2866   -3.0818    1.6559 H       1  UNL1        0.0584
     76 H           7.4384   -1.7770    1.9257 H       1  UNL1        0.0584
     77 H           8.4367   -3.0274    3.2332 H       1  UNL1        0.2095
     78 H           2.4151   -4.4907    2.2967 H       1  UNL1        0.2100
     79 H           6.0818   -1.9186   -1.1594 H       1  UNL1        0.1185
     80 H           5.7687   -3.3664   -1.8260 H       1  UNL1        0.1185
     81 H           1.6977    1.1898   -3.6448 H       1  UNL1        0.1187
     82 H           3.0336    1.2499   -4.5800 H       1  UNL1        0.1187
     83 H           4.9070    3.0689   -4.1076 H       1  UNL1        0.2100
     84 H           7.2711    1.5100   -1.8284 H       1  UNL1        0.2100
     85 H           5.4671    3.7605    0.6587 H       1  UNL1        0.0584
     86 H           5.1681    2.4255    1.7796 H       1  UNL1        0.0584
     87 H           7.1999    1.8099    1.6558 H       1  UNL1        0.2095
@<TRIPOS>BOND
     1     1     2    1
     2     3     1    1
     3     4     3    1
     4     4     5    1
     5     6     4    1
     6     6     7    1
     7     8     6    1
     8     9     8    1
     9     9    10    1
    10    11     9    1
    11    12     9    1
    12    12    13    1
    13    14    12    1
    14    14    15    1
    15    14     4    1
    16    16    14    1
    17    17    16    1
    18    17    18    1
    19    19    17    1
    20    19    20    1
    21    21    19    1
    22    22    19    1
    23    22    23    1
    24    24    22    1
    25    25    24    1
    26    25    26    1
    27    27    25    1
    28    27    28    1
    29    29    27    1
    30    30    27    1
    31    30    31    1
    32    32    30    1
    33    33    30    1
    34    33    34    1
    35    35    33    1
    36    36    33    1
    37    36    37    1
    38    38    36    1
    39    38    25    1
    40    39    36    1
    41    40    39    1
    42    41    22    1
    43    41    42    1
    44    43    41    1
    45    43    17    1
    46    44    41    1
    47    45    44    1
    48    46    12    1
    49    47     6    1
    50    48     1    1
    51    48    49    1
    52    50    48    1
    53    51    48    1
    54    51    52    1
    55    53    51    1
    56    54    51    1
    57    54    55    1
    58    56    54    1
    59    57    54    1
    60    57    58    1
    61    59    57    1
    62    59     1    1
    63    60    57    1
    64    61    60    1
    65     8    62    1
    66     8    63    1
    67    11    64    1
    68    11    65    1
    69    21    66    1
    70    29    67    1
    71    29    68    1
    72    32    69    1
    73    35    70    1
    74    39    71    1
    75    39    72    1
    76    40    73    1
    77    40    74    1
    78    44    75    1
    79    44    76    1
    80    45    77    1
    81    46    78    1
    82    47    79    1
    83    47    80    1
    84    50    81    1
    85    50    82    1
    86    53    83    1
    87    56    84    1
    88    60    85    1
    89    60    86    1
    90    61    87    1
