2O3W_PAR_B_101
  1228              3D

 87 90  0  0  0  0  0  0  0  0999 V2000
    2.9927    1.1397   -1.2198 C   0  0  0  0  0  0  0  0  0  0  0  0
    1.9867    1.5318   -1.0262 H   0  0  0  0  0  0  0  0  0  0  0  0
    2.7593   -0.2730   -1.2743 O   0  0  0  0  0  0  0  0  0  0  0  0
    3.5634   -1.1818   -0.5299 C   0  0  0  0  0  0  0  0  0  0  0  0
    4.4030   -0.6731   -0.0782 H   0  0  0  0  0  0  0  0  0  0  0  0
    4.0927   -2.2344   -1.5292 C   0  0  0  0  0  0  0  0  0  0  0  0
    4.2058   -1.7622   -2.5126 H   0  0  0  0  0  0  0  0  0  0  0  0
    3.1266   -3.4185   -1.6943 C   0  0  0  0  0  0  0  0  0  0  0  0
    2.7966   -4.1375   -0.3726 C   0  0  0  0  0  0  0  0  0  0  0  0
    1.7553   -4.4786   -0.4449 H   0  0  0  0  0  0  0  0  0  0  0  0
    3.5994   -5.3604   -0.2239 N   0  0  0  0  0  0  0  0  0  0  0  0
    2.9496   -3.2567    0.8792 C   0  0  0  0  0  0  0  0  0  0  0  0
    3.9580   -3.3457    1.2941 H   0  0  0  0  0  0  0  0  0  0  0  0
    2.6503   -1.7907    0.5605 C   0  0  0  0  0  0  0  0  0  0  0  0
    1.6286   -1.7744    0.1592 H   0  0  0  0  0  0  0  0  0  0  0  0
    2.5269   -0.9466    1.7063 O   0  0  0  0  0  0  0  0  0  0  0  0
    3.6224   -0.7279    2.5988 C   0  0  0  0  0  0  0  0  0  0  0  0
    3.6018    0.3485    2.7961 H   0  0  0  0  0  0  0  0  0  0  0  0
    3.4257   -1.5066    3.8895 C   0  0  0  0  0  0  0  0  0  0  0  0
    2.4773   -2.0545    3.9429 H   0  0  0  0  0  0  0  0  0  0  0  0
    3.4413   -0.5594    4.9629 O   0  0  0  0  0  0  0  0  0  0  0  0
    4.6406   -2.4386    3.9917 C   0  0  0  0  0  0  0  0  0  0  0  0
    4.4266   -3.3892    3.4974 H   0  0  0  0  0  0  0  0  0  0  0  0
    4.8746   -2.6284    5.3815 O   0  0  0  0  0  0  0  0  0  0  0  0
    5.8259   -3.5850    5.8135 C   0  0  0  0  0  0  0  0  0  0  0  0
    6.7749   -3.3447    5.3376 H   0  0  0  0  0  0  0  0  0  0  0  0
    5.4582   -5.0669    5.5531 C   0  0  0  0  0  0  0  0  0  0  0  0
    5.9139   -5.3533    4.5959 H   0  0  0  0  0  0  0  0  0  0  0  0
    4.0138   -5.3008    5.4129 N   0  0  0  0  0  0  0  0  0  0  0  0
    5.9992   -5.9798    6.6722 C   0  0  0  0  0  0  0  0  0  0  0  0
    5.2885   -6.0215    7.5106 H   0  0  0  0  0  0  0  0  0  0  0  0
    6.1373   -7.3028    6.1567 O   0  0  0  0  0  0  0  0  0  0  0  0
    7.3529   -5.4872    7.1950 C   0  0  0  0  0  0  0  0  0  0  0  0
    8.0924   -5.5789    6.3903 H   0  0  0  0  0  0  0  0  0  0  0  0
    7.8105   -6.3499    8.2337 O   0  0  0  0  0  0  0  0  0  0  0  0
    7.2931   -4.0060    7.6413 C   0  0  0  0  0  0  0  0  0  0  0  0
    8.1045   -3.4641    7.1331 H   0  0  0  0  0  0  0  0  0  0  0  0
    6.0418   -3.4234    7.2283 O   0  0  0  0  0  0  0  0  0  0  0  0
    7.4451   -3.7745    9.1488 C   0  0  0  0  0  0  0  0  0  0  0  0
    7.5272   -2.3467    9.4533 N   0  0  0  0  0  0  0  0  0  0  0  0
    5.6982   -1.6662    3.1993 C   0  0  0  0  0  0  0  0  0  0  0  0
    6.1796   -0.8948    3.8118 H   0  0  0  0  0  0  0  0  0  0  0  0
    4.9460   -1.0125    2.1446 O   0  0  0  0  0  0  0  0  0  0  0  0
    6.7517   -2.4663    2.4312 C   0  0  0  0  0  0  0  0  0  0  0  0
    7.5131   -3.3292    3.2483 O   0  0  0  0  0  0  0  0  0  0  0  0
    2.0199   -3.7180    1.8591 O   0  0  0  0  0  0  0  0  0  0  0  0
    5.4258   -2.6996   -1.1349 N   0  0  0  0  0  0  0  0  0  0  0  0
    3.3867    1.6738   -2.6085 C   0  0  0  0  0  0  0  0  0  0  0  0
    3.0863    2.7308   -2.6611 H   0  0  0  0  0  0  0  0  0  0  0  0
    2.6880    0.9474   -3.6702 N   0  0  0  0  0  0  0  0  0  0  0  0
    4.9017    1.6134   -2.7995 C   0  0  0  0  0  0  0  0  0  0  0  0
    5.2645    0.5795   -2.7740 H   0  0  0  0  0  0  0  0  0  0  0  0
    5.2606    2.1643   -4.0648 O   0  0  0  0  0  0  0  0  0  0  0  0
    5.5454    2.4263   -1.6793 C   0  0  0  0  0  0  0  0  0  0  0  0
    5.2185    3.4711   -1.7342 H   0  0  0  0  0  0  0  0  0  0  0  0
    6.9613    2.4316   -1.8562 O   0  0  0  0  0  0  0  0  0  0  0  0
    5.1819    1.8257   -0.3183 C   0  0  0  0  0  0  0  0  0  0  0  0
    5.6614    0.8496   -0.2113 H   0  0  0  0  0  0  0  0  0  0  0  0
    3.7645    1.6728   -0.1397 O   0  0  0  0  0  0  0  0  0  0  0  0
    5.6688    2.7002    0.8438 C   0  0  0  0  0  0  0  0  0  0  0  0
    7.0693    2.5420    1.0295 O   0  0  0  0  0  0  0  0  0  0  0  0
    2.1879   -3.0338   -2.1147 H   0  0  0  0  0  0  0  0  0  0  0  0
    3.5221   -4.1175   -2.4430 H   0  0  0  0  0  0  0  0  0  0  0  0
    3.5015   -5.9366   -1.0576 H   0  0  0  0  0  0  0  0  0  0  0  0
    4.5861   -5.1139   -0.1659 H   0  0  0  0  0  0  0  0  0  0  0  0
    2.5345   -0.2186    5.0516 H   0  0  0  0  0  0  0  0  0  0  0  0
    3.7982   -6.2635    5.6739 H   0  0  0  0  0  0  0  0  0  0  0  0
    3.7593   -5.2389    4.4272 H   0  0  0  0  0  0  0  0  0  0  0  0
    6.1646   -7.9082    6.9171 H   0  0  0  0  0  0  0  0  0  0  0  0
    7.0893   -6.4548    8.8783 H   0  0  0  0  0  0  0  0  0  0  0  0
    6.5944   -4.2037    9.6894 H   0  0  0  0  0  0  0  0  0  0  0  0
    8.3573   -4.2523    9.5213 H   0  0  0  0  0  0  0  0  0  0  0  0
    7.7153   -2.2264   10.4484 H   0  0  0  0  0  0  0  0  0  0  0  0
    8.3286   -1.9397    8.9713 H   0  0  0  0  0  0  0  0  0  0  0  0
    6.2866   -3.0818    1.6559 H   0  0  0  0  0  0  0  0  0  0  0  0
    7.4384   -1.7770    1.9257 H   0  0  0  0  0  0  0  0  0  0  0  0
    8.4367   -3.0274    3.2332 H   0  0  0  0  0  0  0  0  0  0  0  0
    2.4151   -4.4907    2.2967 H   0  0  0  0  0  0  0  0  0  0  0  0
    6.0818   -1.9186   -1.1594 H   0  0  0  0  0  0  0  0  0  0  0  0
    5.7687   -3.3664   -1.8260 H   0  0  0  0  0  0  0  0  0  0  0  0
    1.6977    1.1898   -3.6448 H   0  0  0  0  0  0  0  0  0  0  0  0
    3.0336    1.2499   -4.5800 H   0  0  0  0  0  0  0  0  0  0  0  0
    4.9070    3.0689   -4.1076 H   0  0  0  0  0  0  0  0  0  0  0  0
    7.2711    1.5100   -1.8284 H   0  0  0  0  0  0  0  0  0  0  0  0
    5.4671    3.7605    0.6587 H   0  0  0  0  0  0  0  0  0  0  0  0
    5.1681    2.4255    1.7796 H   0  0  0  0  0  0  0  0  0  0  0  0
    7.1999    1.8099    1.6558 H   0  0  0  0  0  0  0  0  0  0  0  0
  1  2  1  0  0  0  0
  3  1  1  0  0  0  0
  4  3  1  0  0  0  0
  4  5  1  0  0  0  0
  6  4  1  0  0  0  0
  6  7  1  0  0  0  0
  8  6  1  0  0  0  0
  9  8  1  0  0  0  0
  9 10  1  0  0  0  0
 11  9  1  0  0  0  0
 12  9  1  0  0  0  0
 12 13  1  0  0  0  0
 14 12  1  0  0  0  0
 14 15  1  0  0  0  0
 14  4  1  0  0  0  0
 16 14  1  0  0  0  0
 17 16  1  0  0  0  0
 17 18  1  0  0  0  0
 19 17  1  0  0  0  0
 19 20  1  0  0  0  0
 21 19  1  0  0  0  0
 22 19  1  0  0  0  0
 22 23  1  0  0  0  0
 24 22  1  0  0  0  0
 25 24  1  0  0  0  0
 25 26  1  0  0  0  0
 27 25  1  0  0  0  0
 27 28  1  0  0  0  0
 29 27  1  0  0  0  0
 30 27  1  0  0  0  0
 30 31  1  0  0  0  0
 32 30  1  0  0  0  0
 33 30  1  0  0  0  0
 33 34  1  0  0  0  0
 35 33  1  0  0  0  0
 36 33  1  0  0  0  0
 36 37  1  0  0  0  0
 38 36  1  0  0  0  0
 38 25  1  0  0  0  0
 39 36  1  0  0  0  0
 40 39  1  0  0  0  0
 41 22  1  0  0  0  0
 41 42  1  0  0  0  0
 43 41  1  0  0  0  0
 43 17  1  0  0  0  0
 44 41  1  0  0  0  0
 45 44  1  0  0  0  0
 46 12  1  0  0  0  0
 47  6  1  0  0  0  0
 48  1  1  0  0  0  0
 48 49  1  0  0  0  0
 50 48  1  0  0  0  0
 51 48  1  0  0  0  0
 51 52  1  0  0  0  0
 53 51  1  0  0  0  0
 54 51  1  0  0  0  0
 54 55  1  0  0  0  0
 56 54  1  0  0  0  0
 57 54  1  0  0  0  0
 57 58  1  0  0  0  0
 59 57  1  0  0  0  0
 59  1  1  0  0  0  0
 60 57  1  0  0  0  0
 61 60  1  0  0  0  0
  8 62  1  0  0  0  0
  8 63  1  0  0  0  0
 11 64  1  0  0  0  0
 11 65  1  0  0  0  0
 21 66  1  0  0  0  0
 29 67  1  0  0  0  0
 29 68  1  0  0  0  0
 32 69  1  0  0  0  0
 35 70  1  0  0  0  0
 39 71  1  0  0  0  0
 39 72  1  0  0  0  0
 40 73  1  0  0  0  0
 40 74  1  0  0  0  0
 44 75  1  0  0  0  0
 44 76  1  0  0  0  0
 45 77  1  0  0  0  0
 46 78  1  0  0  0  0
 47 79  1  0  0  0  0
 47 80  1  0  0  0  0
 50 81  1  0  0  0  0
 50 82  1  0  0  0  0
 53 83  1  0  0  0  0
 56 84  1  0  0  0  0
 60 85  1  0  0  0  0
 60 86  1  0  0  0  0
 61 87  1  0  0  0  0
M  END
>  <energy>
156.71224154913926

$$$$
