@<TRIPOS>MOLECULE
ligand.pdb
 22 21 0 0 0
SMALL
GASTEIGER

@<TRIPOS>ATOM
      1 O1         -3.0963    0.7742    1.1600 O.3     1  <1>        -0.4795
      2 C1         -2.7254    0.4986   -0.1172 C.2     1  <1>         0.3240
      3 O2         -1.5656    0.5745   -0.5019 O.2     1  <1>        -0.2492
      4 C2         -3.9206    0.1024   -0.9723 C.3     1  <1>         0.1268
      5 H1         -4.5231    1.0011   -1.1515 H       1  <1>         0.0597
      6 N1         -3.4284   -0.4011   -2.2559 N.3     1  <1>        -0.3166
      7 C3         -4.7783   -0.9612   -0.2784 C.3     1  <1>         0.0732
      8 O3         -5.6843   -1.5404   -1.2190 O.3     1  <1>        -0.3764
      9 C4         -5.7263   -2.9645   -1.1574 C.3     1  <1>         0.0600
     10 C5         -6.3435   -3.4710   -2.4547 C.3     1  <1>         0.0166
     11 N2         -6.0433   -4.8890   -2.6113 N.3     1  <1>        -0.3279
     12 H2         -3.5362    1.6462    1.2528 H       1  <1>         0.2951
     13 H3         -3.4598    0.3382   -2.9560 H       1  <1>         0.1190
     14 H4         -2.4567   -0.6989   -2.1842 H       1  <1>         0.1190
     15 H5         -4.1537   -1.7174    0.2138 H       1  <1>         0.0581
     16 H6         -5.3912   -0.4876    0.4971 H       1  <1>         0.0581
     17 H7         -6.3428   -3.2555   -0.2998 H       1  <1>         0.0572
     18 H8         -4.7176   -3.3769   -1.0271 H       1  <1>         0.0572
     19 H9         -5.9462   -2.9187   -3.3141 H       1  <1>         0.0444
     20 H10        -7.4292   -3.3239   -2.4407 H       1  <1>         0.0444
     21 H11        -6.5435   -5.2581   -3.4180 H       1  <1>         0.1183
     22 H12        -5.0516   -4.9978   -2.8223 H       1  <1>         0.1183
@<TRIPOS>BOND
     1     2     1    1
     2     3     2    2
     3     4     2    1
     4     4     5    1
     5     6     4    1
     6     7     4    1
     7     8     7    1
     8     9     8    1
     9    10     9    1
    10    11    10    1
    11     1    12    1
    12     6    13    1
    13     6    14    1
    14     7    15    1
    15     7    16    1
    16     9    17    1
    17     9    18    1
    18    10    19    1
    19    10    20    1
    20    11    21    1
    21    11    22    1
