REMARK  12 active torsions:
REMARK  status: ('A' for Active; 'I' for Inactive)
REMARK    1  A    between atoms: CA_2  and  N_1 
REMARK    2  A    between atoms: CA_2  and  C_3 
REMARK    3  A    between atoms: CA_2  and  C_6 
REMARK    4  A    between atoms: C_3  and  OXT_5 
REMARK    5  A    between atoms: C_6  and  C_7 
REMARK    6  A    between atoms: S_8  and  C_7 
REMARK    7  A    between atoms: S_8  and  C_11 
REMARK    8  A    between atoms: C_11  and  C_12 
REMARK    9  A    between atoms: C_14  and  N_19 
REMARK   10  A    between atoms: C_15  and  O_18 
REMARK   11  A    between atoms: C_16  and  O_17 
REMARK   12  A    between atoms: C_23  and  N_24 
ROOT
ATOM      1  C   UNL d   1       7.654   4.691   0.341  0.00  0.00     0.163 C 
ATOM      2  O   UNL d   1       7.016   5.824  -0.274  0.00  0.00    -0.355 OA
ATOM      3  C   UNL d   1       7.520   7.000   0.400  0.00  0.00     0.262 C 
ATOM      4  C   UNL d   1       7.823   6.587   1.847  0.00  0.00     0.198 C 
ATOM      5  C   UNL d   1       7.761   5.060   1.823  0.00  0.00     0.180 C 
ENDROOT
BRANCH   1   6
ATOM      6  C   UNL d   1       6.825   3.419   0.161  0.00  0.00     0.086 C 
BRANCH   6   7
ATOM      7  S   UNL d   1       6.583   2.901  -1.524  0.00  0.00    -0.264 SA
ATOM      8  C   UNL d   1       8.154   2.441  -2.199  0.00  0.00     0.066 C 
ATOM      9  H   UNL d   1       6.000   3.857  -2.268  0.00  0.00     0.081 HD
BRANCH   7  10
ATOM     10  C   UNL d   1       5.642   1.392  -1.482  0.00  0.00     0.054 C 
BRANCH  10  11
ATOM     11  C   UNL d   1       4.288   1.518  -0.789  0.00  0.00     0.055 C 
BRANCH  11  12
ATOM     12  CA  UNL d   1       3.334   2.547  -1.414  0.00  0.00     0.315 C 
BRANCH  12  13
ATOM     13  C   UNL d   1       2.871   2.150  -2.829  0.00  0.00     0.173 C 
ATOM     14  O   UNL d   1       3.114   1.095  -3.393  0.00  0.00    -0.648 OA
BRANCH  13  15
ATOM     15  OXT UNL d   1       2.094   3.109  -3.399  0.00  0.00    -0.775 OA
ATOM     16  HXT UNL d   1       2.019   3.909  -2.845  0.00  0.00     0.167 HD
ENDBRANCH  13  15
ENDBRANCH  12  13
BRANCH  12  17
ATOM     17  N   UNL d   1       2.152   2.688  -0.531  0.00  0.00     0.093 N 
ATOM     18  H1  UNL d   1       1.712   1.769  -0.426  0.00  0.00     0.314 HD
ATOM     19  H2  UNL d   1       1.437   3.283  -0.941  0.00  0.00     0.314 HD
ENDBRANCH  12  17
ENDBRANCH  11  12
ENDBRANCH  10  11
ENDBRANCH   7  10
ENDBRANCH   6   7
ENDBRANCH   1   6
BRANCH   5  20
ATOM     20  O   UNL d   1       8.878   4.444   2.450  0.00  0.00    -0.390 OA
ATOM     21  H   UNL d   1       9.404   5.176   2.838  0.00  0.00     0.210 HD
ENDBRANCH   5  20
BRANCH   3  22
ATOM     22  N   UNL d   1       6.547   8.073   0.301  0.00  0.00    -0.294 N 
ATOM     23  C   UNL d   1       5.338   8.020  -0.341  0.00  0.00     0.214 A 
ATOM     24  N   UNL d   1       4.662   9.141  -0.221  0.00  0.00    -0.236 NA
ATOM     25  C   UNL d   1       5.487   9.973   0.505  0.00  0.00     0.149 A 
ATOM     26  C   UNL d   1       5.330  11.295   0.953  0.00  0.00     0.155 A 
ATOM     27  C   UNL d   1       6.680   9.337   0.820  0.00  0.00     0.167 A 
ATOM     28  N   UNL d   1       6.358  11.877   1.609  0.00  0.00    -0.222 NA
ATOM     29  C   UNL d   1       7.470  11.143   1.838  0.00  0.00     0.237 A 
ATOM     30  N   UNL d   1       7.721   9.852   1.500  0.00  0.00    -0.222 NA
BRANCH  26  31
ATOM     31  N   UNL d   1       4.171  12.030   0.740  0.00  0.00    -0.382 N 
ATOM     32  H   UNL d   1       3.596  11.672  -0.015  0.00  0.00     0.157 HD
ATOM     33  H   UNL d   1       4.320  13.028   0.790  0.00  0.00     0.157 HD
ENDBRANCH  26  31
ENDBRANCH   3  22
BRANCH   4  34
ATOM     34  O   UNL d   1       9.107   7.034   2.301  0.00  0.00    -0.388 OA
ATOM     35  H   UNL d   1       9.072   8.014   2.313  0.00  0.00     0.210 HD
ENDBRANCH   4  34
TORSDOF 12
