@<TRIPOS>MOLECULE
ligand.pdb
 51 53 0 0 0
SMALL
GASTEIGER

@<TRIPOS>ATOM
      1 N           2.1519    2.6876   -0.5308 N.3     1  UNL1       -0.3184
      2 CA          3.3342    2.5467   -1.4139 C.3     1  UNL1        0.1039
      3 HA          3.8282    3.5209   -1.4823 H       1  UNL1        0.0574
      4 C           2.8709    2.1503   -2.8290 C.2     1  UNL1        0.3217
      5 O           3.1135    1.0953   -3.3930 O.2     1  UNL1       -0.2493
      6 OXT         2.0941    3.1092   -3.3987 O.3     1  UNL1       -0.4795
      7 C           4.2877    1.5185   -0.7891 C.3     1  UNL1       -0.0199
      8 C           5.6419    1.3923   -1.4819 C.3     1  UNL1       -0.0230
      9 S           6.5832    2.9008   -1.5241 S.3     1  UNL1       -0.2533
     10 H           6.0003    3.8573   -2.2678 H       1  UNL1        0.0821
     11 C           8.1537    2.4409   -2.1993 C.3     1  UNL1       -0.0366
     12 C           6.8249    3.4194    0.1614 C.3     1  UNL1        0.0041
     13 C           7.6543    4.6915    0.3413 C.3     1  UNL1        0.0970
     14 H           8.6453    4.5662   -0.1114 H       1  UNL1        0.0631
     15 O           7.0162    5.8241   -0.2742 O.3     1  UNL1       -0.3472
     16 C           7.5202    7.0001    0.4000 C.3     1  UNL1        0.1666
     17 H           8.4229    7.3388   -0.1244 H       1  UNL1        0.0866
     18 C           7.8227    6.5869    1.8472 C.3     1  UNL1        0.1285
     19 H           7.0787    6.9682    2.5563 H       1  UNL1        0.0665
     20 C           7.7608    5.0603    1.8230 C.3     1  UNL1        0.1121
     21 H           6.8579    4.7412    2.3575 H       1  UNL1        0.0647
     22 O           8.8783    4.4442    2.4505 O.3     1  UNL1       -0.3865
     23 O           9.1069    7.0344    2.3015 O.3     1  UNL1       -0.3847
     24 N           6.5469    8.0732    0.3006 N.ar    1  UNL1       -0.2855
     25 C           5.3379    8.0198   -0.3409 C.ar    1  UNL1        0.1004
     26 N           4.6622    9.1414   -0.2210 N.ar    1  UNL1       -0.2306
     27 C           5.4875    9.9728    0.5053 C.ar    1  UNL1        0.1473
     28 C           5.3295   11.2950    0.9527 C.ar    1  UNL1        0.1472
     29 N           4.1706   12.0300    0.7404 N.pl3   1  UNL1       -0.3413
     30 N           6.3577   11.8771    1.6088 N.ar    1  UNL1       -0.2188
     31 C           7.4697   11.1425    1.8380 C.ar    1  UNL1        0.1205
     32 N           7.7214    9.8520    1.5004 N.ar    1  UNL1       -0.2159
     33 C           6.6803    9.3369    0.8199 C.ar    1  UNL1        0.1674
     34 H1          1.7122    1.7692   -0.4262 H       1  UNL1        0.1190
     35 H2          1.4368    3.2830   -0.9410 H       1  UNL1        0.1190
     36 HXT         2.0190    3.9095   -2.8453 H       1  UNL1        0.2951
     37 H           3.8134    0.5276   -0.7869 H       1  UNL1        0.0293
     38 H           4.4562    1.7744    0.2644 H       1  UNL1        0.0293
     39 H           5.5360    1.0544   -2.5163 H       1  UNL1        0.0360
     40 H           6.2543    0.6522   -0.9545 H       1  UNL1        0.0360
     41 H           8.7331    3.3471   -2.3800 H       1  UNL1        0.0324
     42 H           7.9824    1.9258   -3.1420 H       1  UNL1        0.0324
     43 H           8.6685    1.7832   -1.4981 H       1  UNL1        0.0324
     44 H           7.2775    2.5771    0.6935 H       1  UNL1        0.0385
     45 H           5.8158    3.5864    0.5514 H       1  UNL1        0.0385
     46 H           9.4043    5.1757    2.8376 H       1  UNL1        0.2100
     47 H           9.0715    8.0140    2.3135 H       1  UNL1        0.2101
     48 H           5.0008    7.1403   -0.8754 H       1  UNL1        0.1030
     49 H           3.5961   11.6723   -0.0147 H       1  UNL1        0.1438
     50 H           4.3200   13.0283    0.7901 H       1  UNL1        0.1438
     51 H           8.2660   11.6637    2.3644 H       1  UNL1        0.1048
@<TRIPOS>BOND
     1     1    34    1
     2     1    35    1
     3     2     4    1
     4     2     7    1
     5     2     3    1
     6     2     1    1
     7     4     5    2
     8     4     6    1
     9     6    36    1
    10     7     8    1
    11     7    37    1
    12     7    38    1
    13     8    39    1
    14     8    40    1
    15     9    11    1
    16     9    12    1
    17     9    10    1
    18     9     8    1
    19    11    41    1
    20    11    42    1
    21    11    43    1
    22    12    13    1
    23    12    44    1
    24    12    45    1
    25    13    14    1
    26    13    15    1
    27    13    20    1
    28    15    16    1
    29    16    18    1
    30    16    24    1
    31    16    17    1
    32    18    19    1
    33    18    20    1
    34    18    23    1
    35    20    21    1
    36    20    22    1
    37    22    46    1
    38    23    47    1
    39    24    25   ar
    40    24    33   ar
    41    25    26   ar
    42    25    48    1
    43    26    27   ar
    44    27    28   ar
    45    27    33   ar
    46    28    29    1
    47    28    30   ar
    48    29    49    1
    49    29    50    1
    50    30    31   ar
    51    31    32   ar
    52    31    51    1
    53    32    33   ar
