@<TRIPOS>MOLECULE
1AM0_AMP_A_41
 37 39 0 0 0
SMALL
GASTEIGER

@<TRIPOS>ATOM
      1 P          -5.4507   -1.3578    0.9189 P.3     1  UNL1        0.4724
      2 O          -5.4812   -2.5892    1.7726 O.2     1  UNL1       -0.2275
      3 O          -6.7887   -0.4519    1.0014 O.3     1  UNL1       -0.3026
      4 O          -5.3340   -1.6256   -0.6652 O.3     1  UNL1       -0.3026
      5 O          -4.2851   -0.2988    1.2615 O.3     1  UNL1       -0.2841
      6 C          -2.9056   -0.6200    1.1252 C.3     1  UNL1        0.0878
      7 C          -2.4369   -0.1215   -0.2333 C.3     1  UNL1        0.1134
      8 H          -3.1132    0.6774   -0.5671 H       1  UNL1        0.0647
      9 O          -1.1256    0.4856   -0.1691 O.3     1  UNL1       -0.3456
     10 C          -0.5834    0.3345   -1.4984 C.3     1  UNL1        0.1667
     11 H          -1.1269    1.0022   -2.1867 H       1  UNL1        0.0866
     12 C          -0.8953   -1.1240   -1.7934 C.3     1  UNL1        0.1285
     13 H          -0.2623   -1.7952   -1.2009 H       1  UNL1        0.0665
     14 C          -2.3279   -1.2278   -1.2938 C.3     1  UNL1        0.1135
     15 H          -2.5504   -2.2332   -0.9275 H       1  UNL1        0.0647
     16 O          -3.2228   -0.9537   -2.3712 O.3     1  UNL1       -0.3864
     17 O          -0.8065   -1.4764   -3.1573 O.3     1  UNL1       -0.3847
     18 N           0.8049    0.7718   -1.4946 N.ar    1  UNL1       -0.2855
     19 C           1.8286    0.0899   -2.1241 C.ar    1  UNL1        0.1004
     20 N           2.9011    0.8364   -2.2702 N.ar    1  UNL1       -0.2306
     21 C           2.4579    2.1162   -2.0728 C.ar    1  UNL1        0.1473
     22 C           3.1203    3.3487   -2.1723 C.ar    1  UNL1        0.1472
     23 N           4.4588    3.4325   -2.5823 N.pl3   1  UNL1       -0.3413
     24 N           2.4231    4.4609   -1.8093 N.ar    1  UNL1       -0.2188
     25 C           1.1459    4.3121   -1.3795 C.ar    1  UNL1        0.1205
     26 N           0.4376    3.1782   -1.2117 N.ar    1  UNL1       -0.2159
     27 C           1.1342    2.1136   -1.6555 C.ar    1  UNL1        0.1674
     28 H          -7.1542   -0.0840    0.1697 H       1  UNL1        0.2220
     29 H          -4.7387   -2.3305   -1.0023 H       1  UNL1        0.2220
     30 H          -2.7507   -1.6966    1.2687 H       1  UNL1        0.0592
     31 H          -2.3732   -0.1064    1.9294 H       1  UNL1        0.0592
     32 H          -3.9812   -0.4511   -2.0299 H       1  UNL1        0.2100
     33 H           0.0629   -1.2127   -3.4930 H       1  UNL1        0.2101
     34 H           1.8352   -0.9898   -2.1951 H       1  UNL1        0.1030
     35 H           4.7155    4.3980   -2.7689 H       1  UNL1        0.1438
     36 H           4.6235    2.8717   -3.4162 H       1  UNL1        0.1438
     37 H           0.6656    5.2222   -1.0365 H       1  UNL1        0.1048
@<TRIPOS>BOND
     1     2     1    2
     2     3     1    1
     3     4     1    1
     4     5     1    1
     5     6     5    1
     6     7     6    1
     7     7     8    1
     8     9     7    1
     9    10     9    1
    10    10    11    1
    11    12    10    1
    12    12    13    1
    13    14    12    1
    14    14    15    1
    15    14     7    1
    16    16    14    1
    17    17    12    1
    18    18    10    1
    19    19    18   ar
    20    20    19   ar
    21    21    20   ar
    22    22    21   ar
    23    23    22    1
    24    24    22   ar
    25    25    24   ar
    26    26    25   ar
    27    27    26   ar
    28    27    18   ar
    29    27    21   ar
    30     3    28    1
    31     4    29    1
    32     6    30    1
    33     6    31    1
    34    16    32    1
    35    17    33    1
    36    19    34    1
    37    23    35    1
    38    23    36    1
    39    25    37    1
