REMARK  9 active torsions:
REMARK  status: ('A' for Active; 'I' for Inactive)
REMARK    1  A    between atoms: O_3  and  P_1 
REMARK    2  A    between atoms: O_4  and  P_1 
REMARK    3  A    between atoms: O_5  and  P_1 
REMARK    4  A    between atoms: C_6  and  O_5 
REMARK    5  A    between atoms: C_7  and  C_6 
REMARK    6  A    between atoms: N_14  and  C_9 
REMARK    7  A    between atoms: O_13  and  C_10 
REMARK    8  A    between atoms: O_12  and  C_11 
REMARK    9  A    between atoms: N_19  and  C_18 
ROOT
ATOM      1  C   UNL d   1      -2.437  -0.121  -0.233  0.00  0.00     0.180 C 
ATOM      2  O   UNL d   1      -1.126   0.486  -0.169  0.00  0.00    -0.353 OA
ATOM      3  C   UNL d   1      -0.583   0.335  -1.498  0.00  0.00     0.262 C 
ATOM      4  C   UNL d   1      -0.895  -1.124  -1.793  0.00  0.00     0.198 C 
ATOM      5  C   UNL d   1      -2.328  -1.228  -1.294  0.00  0.00     0.182 C 
ENDROOT
BRANCH   3   6
ATOM      6  N   UNL d   1       0.805   0.772  -1.495  0.00  0.00    -0.294 N 
ATOM      7  C   UNL d   1       1.829   0.090  -2.124  0.00  0.00     0.214 C 
ATOM      8  N   UNL d   1       2.901   0.836  -2.270  0.00  0.00    -0.236 NA
ATOM      9  C   UNL d   1       2.458   2.116  -2.073  0.00  0.00     0.144 C 
ATOM     10  C   UNL d   1       3.120   3.349  -2.172  0.00  0.00     0.135 C 
ATOM     11  C   UNL d   1       1.134   2.114  -1.655  0.00  0.00     0.166 C 
ATOM     12  N   UNL d   1       2.423   4.461  -1.809  0.00  0.00    -0.228 NA
ATOM     13  C   UNL d   1       1.146   4.312  -1.379  0.00  0.00     0.237 C 
ATOM     14  N   UNL d   1       0.438   3.178  -1.212  0.00  0.00    -0.222 NA
BRANCH  10  15
ATOM     15  N   UNL d   1       4.459   3.433  -2.582  0.00  0.00    -0.285 NA
ATOM     16  H   UNL d   1       4.715   4.398  -2.769  0.00  0.00     0.125 HD
ATOM     17  H   UNL d   1       4.623   2.872  -3.416  0.00  0.00     0.125 HD
ENDBRANCH  10  15
ENDBRANCH   3   6
BRANCH   4  18
ATOM     18  O   UNL d   1      -0.806  -1.476  -3.157  0.00  0.00    -0.388 OA
ATOM     19  H   UNL d   1       0.063  -1.213  -3.493  0.00  0.00     0.210 HD
ENDBRANCH   4  18
BRANCH   1  20
ATOM     20  C   UNL d   1      -2.906  -0.620   1.125  0.00  0.00     0.215 C 
BRANCH  20  21
ATOM     21  O   UNL d   1      -4.285  -0.299   1.262  0.00  0.00    -0.294 OA
BRANCH  21  22
ATOM     22  P   UNL d   1      -5.451  -1.358   0.919  0.00  0.00     0.390 P 
ATOM     23  O   UNL d   1      -5.481  -2.589   1.773  0.00  0.00    -0.632 OA
BRANCH  22  24
ATOM     24  O   UNL d   1      -6.789  -0.452   1.001  0.00  0.00    -0.307 OA
ATOM     25  H   UNL d   1      -7.154  -0.084   0.170  0.00  0.00     0.222 HD
ENDBRANCH  22  24
BRANCH  22  26
ATOM     26  O   UNL d   1      -5.334  -1.626  -0.665  0.00  0.00    -0.307 OA
ATOM     27  H   UNL d   1      -4.739  -2.330  -1.002  0.00  0.00     0.222 HD
ENDBRANCH  22  26
ENDBRANCH  21  22
ENDBRANCH  20  21
ENDBRANCH   1  20
BRANCH   5  28
ATOM     28  O   UNL d   1      -3.223  -0.954  -2.371  0.00  0.00    -0.390 OA
ATOM     29  H   UNL d   1      -3.981  -0.451  -2.030  0.00  0.00     0.210 HD
ENDBRANCH   5  28
TORSDOF 9
