2L94_L94_A_46
 OpenBabel10091713583D
Coordinates from PDB:2L94:A:46 Model:1 without hydrogens
 60 60  0  0  0  0  0  0  0  0999 V2000
    6.2160   -1.3990   -2.0700 C   0  0  0  0  0  0  0  0  0  0  0  0
    5.4230   -0.9230   -3.1680 C   0  0  0  0  0  0  0  0  0  0  0  0
    4.4730    0.0570   -3.0030 C   0  0  0  0  0  0  0  0  0  0  0  0
    4.2300    0.6630   -1.7290 C   0  0  0  0  0  0  0  0  0  0  0  0
    4.9990    0.1630   -0.6270 C   0  0  0  0  0  0  0  0  0  0  0  0
    5.9420   -0.8210   -0.7890 C   0  0  0  0  0  0  0  0  0  0  0  0
    7.1840   -2.3490   -2.2290 C   0  0  0  0  0  0  0  0  0  0  0  0
    7.4900   -2.8870   -3.4290 N   0  0  0  0  0  0  0  0  0  0  0  0
    2.5590    2.1520   -2.5650 N   0  0  0  0  0  0  0  0  0  0  0  0
    3.3160    1.6610   -1.5610 C   0  0  0  0  0  0  0  0  0  0  0  0
    7.9160   -2.8220   -1.1900 N   0  0  0  0  0  4  0  0  0  0  0  0
    3.0910    2.2490   -0.3620 N   0  0  0  0  0  4  0  0  0  0  0  0
    9.3240   -3.2130   -1.2200 C   0  0  0  0  0  0  0  0  0  0  0  0
    1.8860    2.9740    0.0290 C   0  0  0  0  0  0  0  0  0  0  0  0
   10.1550   -2.0370   -0.6820 C   0  0  0  0  0  0  0  0  0  0  0  0
    0.8000    1.9370    0.3710 C   0  0  0  0  0  0  0  0  0  0  0  0
   11.6540   -2.3660   -0.7100 C   0  0  0  0  0  0  0  0  0  0  0  0
   -0.5390    2.5870    0.7640 C   0  0  0  0  0  0  0  0  0  0  0  0
   12.4280   -1.2120   -0.1260 N   0  3  0  0  0  0  0  0  0  0  0  0
   -0.5950    2.8900    2.2400 N   0  3  0  0  0  0  0  0  0  0  0  0
   13.9020   -1.4200   -0.3440 C   0  0  0  0  0  0  0  0  0  0  0  0
   -1.8890    3.5970    2.5420 C   0  0  0  0  0  0  0  0  0  0  0  0
   12.1500   -1.0700    1.3500 C   0  0  0  0  0  0  0  0  0  0  0  0
    0.5500    3.7560    2.6860 C   0  0  0  0  0  0  0  0  0  0  0  0
    5.5700   -1.3272   -4.1061 H   0  0  0  0  0  0  0  0  0  0  0  0
    3.9206    0.3638   -3.8189 H   0  0  0  0  0  0  0  0  0  0  0  0
    4.8389    0.5540    0.3145 H   0  0  0  0  0  0  0  0  0  0  0  0
    6.4677   -1.1532    0.0346 H   0  0  0  0  0  0  0  0  0  0  0  0
    7.0052   -2.5985   -4.2358 H   0  0  0  0  0  0  0  0  0  0  0  0
    8.1979   -3.5678   -3.4971 H   0  0  0  0  0  0  0  0  0  0  0  0
    2.6514    1.7873   -3.4748 H   0  0  0  0  0  0  0  0  0  0  0  0
    1.9145    2.8748   -2.3874 H   0  0  0  0  0  0  0  0  0  0  0  0
    7.4512   -2.9112   -0.3267 H   0  0  0  0  0  0  0  0  0  0  0  0
    3.8079    2.1810    0.3093 H   0  0  0  0  0  0  0  0  0  0  0  0
    9.6177   -3.4357   -2.2245 H   0  0  0  0  0  0  0  0  0  0  0  0
    9.4807   -4.0845   -0.6193 H   0  0  0  0  0  0  0  0  0  0  0  0
    1.5560    3.5932   -0.7788 H   0  0  0  0  0  0  0  0  0  0  0  0
    2.0846    3.5986    0.8748 H   0  0  0  0  0  0  0  0  0  0  0  0
    9.8603   -1.8322    0.3260 H   0  0  0  0  0  0  0  0  0  0  0  0
    9.9811   -1.1835   -1.3035 H   0  0  0  0  0  0  0  0  0  0  0  0
    1.1433    1.3388    1.1890 H   0  0  0  0  0  0  0  0  0  0  0  0
    0.6284    1.3476   -0.5054 H   0  0  0  0  0  0  0  0  0  0  0  0
   11.9651   -2.5302   -1.7205 H   0  0  0  0  0  0  0  0  0  0  0  0
   11.8381   -3.2490   -0.1345 H   0  0  0  0  0  0  0  0  0  0  0  0
   -1.3362    1.9177    0.5161 H   0  0  0  0  0  0  0  0  0  0  0  0
   -0.6343    3.5085    0.2286 H   0  0  0  0  0  0  0  0  0  0  0  0
   12.1304   -0.3574   -0.5967 H   0  0  0  0  0  0  0  0  0  0  0  0
   -0.5312    2.0056    2.7441 H   0  0  0  0  0  0  0  0  0  0  0  0
   14.2126   -2.3167    0.1503 H   0  0  0  0  0  0  0  0  0  0  0  0
   14.4426   -0.5872    0.0550 H   0  0  0  0  0  0  0  0  0  0  0  0
   14.0992   -1.5040   -1.3923 H   0  0  0  0  0  0  0  0  0  0  0  0
   -1.9266    4.5189    2.0001 H   0  0  0  0  0  0  0  0  0  0  0  0
   -1.9495    3.7973    3.5913 H   0  0  0  0  0  0  0  0  0  0  0  0
   -2.7107    2.9774    2.2492 H   0  0  0  0  0  0  0  0  0  0  0  0
   12.4573   -1.9601    1.8581 H   0  0  0  0  0  0  0  0  0  0  0  0
   11.1022   -0.9161    1.5024 H   0  0  0  0  0  0  0  0  0  0  0  0
   12.6934   -0.2331    1.7364 H   0  0  0  0  0  0  0  0  0  0  0  0
    0.5091    4.6937    2.1723 H   0  0  0  0  0  0  0  0  0  0  0  0
    1.4751    3.2670    2.4627 H   0  0  0  0  0  0  0  0  0  0  0  0
    0.4807    3.9237    3.7405 H   0  0  0  0  0  0  0  0  0  0  0  0
  1  2  2  0  0  0  0
  1  6  1  0  0  0  0
  1  7  1  0  0  0  0
  2  3  1  0  0  0  0
  2 25  1  0  0  0  0
  3  4  2  0  0  0  0
  3 26  1  0  0  0  0
  4  5  1  0  0  0  0
  4 10  1  0  0  0  0
  5  6  2  0  0  0  0
  5 27  1  0  0  0  0
  6 28  1  0  0  0  0
  7  8  1  0  0  0  0
  7 11  2  0  0  0  0
  8 29  1  0  0  0  0
  8 30  1  0  0  0  0
  9 10  1  0  0  0  0
  9 31  1  0  0  0  0
  9 32  1  0  0  0  0
 10 12  2  0  0  0  0
 11 13  1  0  0  0  0
 11 33  1  0  0  0  0
 12 14  1  0  0  0  0
 12 34  1  0  0  0  0
 13 15  1  0  0  0  0
 13 35  1  0  0  0  0
 13 36  1  0  0  0  0
 14 16  1  0  0  0  0
 14 37  1  0  0  0  0
 14 38  1  0  0  0  0
 15 17  1  0  0  0  0
 15 39  1  0  0  0  0
 15 40  1  0  0  0  0
 16 18  1  0  0  0  0
 16 41  1  0  0  0  0
 16 42  1  0  0  0  0
 17 19  1  0  0  0  0
 17 43  1  0  0  0  0
 17 44  1  0  0  0  0
 18 20  1  0  0  0  0
 18 45  1  0  0  0  0
 18 46  1  0  0  0  0
 19 21  1  0  0  0  0
 19 23  1  0  0  0  0
 19 47  1  0  0  0  0
 20 22  1  0  0  0  0
 20 24  1  0  0  0  0
 20 48  1  0  0  0  0
 21 49  1  0  0  0  0
 21 50  1  0  0  0  0
 21 51  1  0  0  0  0
 22 52  1  0  0  0  0
 22 53  1  0  0  0  0
 22 54  1  0  0  0  0
 23 55  1  0  0  0  0
 23 56  1  0  0  0  0
 23 57  1  0  0  0  0
 24 58  1  0  0  0  0
 24 59  1  0  0  0  0
 24 60  1  0  0  0  0
M  CHG  2  19   1  20   1
M  END
$$$$
