2L94_L94_A_46
 OpenBabel10091713583D
Coordinates from PDB:2L94:A:46 Model:1 without hydrogens
 24 24  0  0  0  0  0  0  0  0999 V2000
    6.2160   -1.3990   -2.0700 C   0  0  0  0  0  0  0  0  0  0  0  0
    5.4230   -0.9230   -3.1680 C   0  0  0  0  0  0  0  0  0  0  0  0
    4.4730    0.0570   -3.0030 C   0  0  0  0  0  0  0  0  0  0  0  0
    4.2300    0.6630   -1.7290 C   0  0  0  0  0  0  0  0  0  0  0  0
    4.9990    0.1630   -0.6270 C   0  0  0  0  0  0  0  0  0  0  0  0
    5.9420   -0.8210   -0.7890 C   0  0  0  0  0  0  0  0  0  0  0  0
    7.1840   -2.3490   -2.2290 C   0  0  0  0  0  0  0  0  0  0  0  0
    7.4900   -2.8870   -3.4290 N   0  0  0  0  0  0  0  0  0  0  0  0
    2.5590    2.1520   -2.5650 N   0  0  0  0  0  0  0  0  0  0  0  0
    3.3160    1.6610   -1.5610 C   0  0  0  0  0  0  0  0  0  0  0  0
    7.9160   -2.8220   -1.1900 N   0  3  0  0  0  0  0  0  0  0  0  0
    3.0910    2.2490   -0.3620 N   0  3  0  0  0  0  0  0  0  0  0  0
    9.3240   -3.2130   -1.2200 C   0  0  0  0  0  0  0  0  0  0  0  0
    1.8860    2.9740    0.0290 C   0  0  0  0  0  0  0  0  0  0  0  0
   10.1550   -2.0370   -0.6820 C   0  0  0  0  0  0  0  0  0  0  0  0
    0.8000    1.9370    0.3710 C   0  0  0  0  0  0  0  0  0  0  0  0
   11.6540   -2.3660   -0.7100 C   0  0  0  0  0  0  0  0  0  0  0  0
   -0.5390    2.5870    0.7640 C   0  0  0  0  0  0  0  0  0  0  0  0
   12.4280   -1.2120   -0.1260 N   0  3  0  0  0  0  0  0  0  0  0  0
   -0.5950    2.8900    2.2400 N   0  3  0  0  0  0  0  0  0  0  0  0
   13.9020   -1.4200   -0.3440 C   0  0  0  0  0  0  0  0  0  0  0  0
   -1.8890    3.5970    2.5420 C   0  0  0  0  0  0  0  0  0  0  0  0
   12.1500   -1.0700    1.3500 C   0  0  0  0  0  0  0  0  0  0  0  0
    0.5500    3.7560    2.6860 C   0  0  0  0  0  0  0  0  0  0  0  0
  1  2  2  0  0  0  0
  1  6  1  0  0  0  0
  1  7  1  0  0  0  0
  2  3  1  0  0  0  0
  3  4  2  0  0  0  0
  4  5  1  0  0  0  0
  4 10  1  0  0  0  0
  5  6  2  0  0  0  0
  7  8  1  0  0  0  0
  7 11  2  0  0  0  0
  9 10  1  0  0  0  0
 10 12  2  0  0  0  0
 11 13  1  0  0  0  0
 12 14  1  0  0  0  0
 13 15  1  0  0  0  0
 14 16  1  0  0  0  0
 15 17  1  0  0  0  0
 16 18  1  0  0  0  0
 17 19  1  0  0  0  0
 18 20  1  0  0  0  0
 19 21  1  0  0  0  0
 19 23  1  0  0  0  0
 20 22  1  0  0  0  0
 20 24  1  0  0  0  0
A    1
C1
A    2
C2
A    3
C3
A    4
C4
A    5
C5
A    6
C6
A    7
C11
A    8
N111
A    9
N114
A   10
C14
A   11
N21
A   12
N24
A   13
C31
A   14
C34
A   15
C41
A   16
C44
A   17
C51
A   18
C54
A   19
N61
A   20
N64
A   21
C71
A   22
C74
A   23
C81
A   24
C84
M  CHG  4  11   1  12   1  19   1  20   1
M  END
>  <InstanceId>
2L94_L94_A_46

>  <ChemCompId>
L94

>  <PdbId>
2L94

>  <ChainId>
A

>  <ResidueNumber>
46

>  <InsertionCode>


>  <Model>
1

>  <AltIds>


>  <MissingHeavyAtoms>
0

>  <ObservedFormula>
C18 N6

>  <Name>
N'-{(Z)-amino[4-(amino{[3-(dimethylammonio)propyl]iminio}methyl)phenyl]methylidene}-N,N-dimethylpropane-1,3-diaminium

>  <SystematicName>
3-[azanyl-[4-[(Z)-azanyl-[3-(dimethylazaniumyl)propylazaniumylidene]methyl]phenyl]methylidene]azaniumylpropyl-dimethyl-azanium

>  <Synonyms>


>  <Type>
NON-POLYMER

>  <Formula>
C18 H36 N6

>  <MolecularWeight>
336.519

>  <ModifiedDate>
2011-06-10

>  <Parent>


>  <OneLetterCode>


>  <SubcomponentList>


>  <AmbiguousFlag>
N

>  <InChI>
InChI=1S/C18H32N6/c1-23(2)13-5-11-21-17(19)15-7-9-16(10-8-15)18(20)22-12-6-14-24(3)4/h7-10H,5-6,11-14H2,1-4H3,(H2,19,21)(H2,20,22)/p+4

>  <InChIKey>
QAWYYAYHHZQCLB-UHFFFAOYSA-R

>  <SMILES>
C[NH+](C)CCC[NH+]=C(c1ccc(cc1)/C(=[NH+]/CCC[NH+](C)C)/N)N

$$$$
