@<TRIPOS>MOLECULE
2L94_L94_A_46
 24 24 0 0 0
SMALL
GASTEIGER
****
Coordinates from PDB:2L94:A:46 Model:1 without hydrogens
@<TRIPOS>ATOM
      1 C           6.2160   -1.3990   -2.0700 C.ar    1  UNL1        0.0902
      2 C           5.4230   -0.9230   -3.1680 C.ar    1  UNL1        0.0079
      3 C           4.4730    0.0570   -3.0030 C.ar    1  UNL1        0.0079
      4 C           4.2300    0.6630   -1.7290 C.ar    1  UNL1        0.0902
      5 C           4.9990    0.1630   -0.6270 C.ar    1  UNL1        0.0079
      6 C           5.9420   -0.8210   -0.7890 C.ar    1  UNL1        0.0079
      7 C           7.1840   -2.3490   -2.2290 C.2     1  UNL1        0.4104
      8 N           7.4900   -2.8870   -3.4290 N.pl3   1  UNL1        0.2159
      9 N           2.5590    2.1520   -2.5650 N.pl3   1  UNL1        0.2159
     10 C           3.3160    1.6610   -1.5610 C.2     1  UNL1        0.4104
     11 N           7.9160   -2.8220   -1.1900 N.2     1  UNL1       -0.0581
     12 N           3.0910    2.2490   -0.3620 N.2     1  UNL1       -0.0581
     13 C           9.3240   -3.2130   -1.2200 C.3     1  UNL1        0.2696
     14 C           1.8860    2.9740    0.0290 C.3     1  UNL1        0.2696
     15 C          10.1550   -2.0370   -0.6820 C.3     1  UNL1        0.1204
     16 C           0.8000    1.9370    0.3710 C.3     1  UNL1        0.1204
     17 C          11.6540   -2.3660   -0.7100 C.3     1  UNL1        0.1439
     18 C          -0.5390    2.5870    0.7640 C.3     1  UNL1        0.1439
     19 N          12.4280   -1.2120   -0.1260 N.4     1  UNL1        0.3868
     20 N          -0.5950    2.8900    2.2400 N.4     1  UNL1        0.3868
     21 C          13.9020   -1.4200   -0.3440 C.3     1  UNL1        0.2025
     22 C          -1.8890    3.5970    2.5420 C.3     1  UNL1        0.2025
     23 C          12.1500   -1.0700    1.3500 C.3     1  UNL1        0.2025
     24 C           0.5500    3.7560    2.6860 C.3     1  UNL1        0.2025
@<TRIPOS>BOND
     1     1     2   ar
     2     1     6   ar
     3     1     7    1
     4     2     3   ar
     5     3     4   ar
     6     4     5   ar
     7     4    10    1
     8     5     6   ar
     9     7     8    1
    10     7    11    2
    11     9    10    1
    12    10    12    2
    13    11    13    1
    14    12    14    1
    15    13    15    1
    16    14    16    1
    17    15    17    1
    18    16    18    1
    19    17    19    1
    20    18    20    1
    21    19    21    1
    22    19    23    1
    23    20    22    1
    24    20    24    1
