REMARK  10 active torsions:
REMARK  status: ('A' for Active; 'I' for Inactive)
REMARK    1  A    between atoms: C_1  and  C_7 
REMARK    2  A    between atoms: C_4  and  C_10 
REMARK    3  A    between atoms: N_11  and  C_13 
REMARK    4  A    between atoms: N_12  and  C_14 
REMARK    5  A    between atoms: C_13  and  C_15 
REMARK    6  A    between atoms: C_14  and  C_16 
REMARK    7  A    between atoms: C_15  and  C_17 
REMARK    8  A    between atoms: C_16  and  C_18 
REMARK    9  A    between atoms: C_17  and  N_19 
REMARK   10  A    between atoms: C_18  and  N_20 
ROOT
ATOM      1  C   UNL d   1       6.216  -1.399  -2.070  0.00  0.00     0.037 A 
ATOM      2  C   UNL d   1       5.423  -0.923  -3.168  0.00  0.00     0.003 A 
ATOM      3  C   UNL d   1       4.473   0.057  -3.003  0.00  0.00     0.003 A 
ATOM      4  C   UNL d   1       4.230   0.663  -1.729  0.00  0.00     0.037 A 
ATOM      5  C   UNL d   1       4.999   0.163  -0.627  0.00  0.00     0.003 A 
ATOM      6  C   UNL d   1       5.942  -0.821  -0.789  0.00  0.00     0.003 A 
ENDROOT
BRANCH   1   7
ATOM      7  C   UNL d   1       7.184  -2.349  -2.229  0.00  0.00     0.179 C 
ATOM      8  N   UNL d   1       7.490  -2.887  -3.429  0.00  0.00    -0.128 N 
ATOM      9  N   UNL d   1       7.916  -2.822  -1.190  0.00  0.00    -0.252 NA
BRANCH   9  10
ATOM     10  C   UNL d   1       9.324  -3.213  -1.220  0.00  0.00     0.129 C 
BRANCH  10  11
ATOM     11  C   UNL d   1      10.155  -2.037  -0.682  0.00  0.00     0.062 C 
BRANCH  11  12
ATOM     12  C   UNL d   1      11.654  -2.366  -0.710  0.00  0.00     0.253 C 
BRANCH  12  13
ATOM     13  N   UNL d   1      12.428  -1.212  -0.126  0.00  0.00     0.141 N 
ATOM     14  C   UNL d   1      13.902  -1.420  -0.344  0.00  0.00     0.285 C 
ATOM     15  C   UNL d   1      12.150  -1.070   1.350  0.00  0.00     0.285 C 
ENDBRANCH  12  13
ENDBRANCH  11  12
ENDBRANCH  10  11
ENDBRANCH   9  10
ENDBRANCH   1   7
BRANCH   4  16
ATOM     16  C   UNL d   1       3.316   1.661  -1.561  0.00  0.00     0.179 C 
ATOM     17  N   UNL d   1       2.559   2.152  -2.565  0.00  0.00    -0.128 N 
ATOM     18  N   UNL d   1       3.091   2.249  -0.362  0.00  0.00    -0.252 NA
BRANCH  18  19
ATOM     19  C   UNL d   1       1.886   2.974   0.029  0.00  0.00     0.129 C 
BRANCH  19  20
ATOM     20  C   UNL d   1       0.800   1.937   0.371  0.00  0.00     0.062 C 
BRANCH  20  21
ATOM     21  C   UNL d   1      -0.539   2.587   0.764  0.00  0.00     0.253 C 
BRANCH  21  22
ATOM     22  N   UNL d   1      -0.595   2.890   2.240  0.00  0.00     0.141 N 
ATOM     23  C   UNL d   1      -1.889   3.597   2.542  0.00  0.00     0.285 C 
ATOM     24  C   UNL d   1       0.550   3.756   2.686  0.00  0.00     0.285 C 
ENDBRANCH  21  22
ENDBRANCH  20  21
ENDBRANCH  19  20
ENDBRANCH  18  19
ENDBRANCH   4  16
TORSDOF 10
