@<TRIPOS>MOLECULE
1LC4_TOY_A_47
 32 34 0 0 0
SMALL
GASTEIGER
****
Coordinates from PDB:1LC4:A:47 Model:1 without hydrogens
@<TRIPOS>ATOM
      1 C          11.8400   -7.1080    5.5750 C.3     1  UNL1        0.2534
      2 O          13.0550   -7.6800    5.1830 O.3     1  UNL1       -0.3277
      3 C          10.6920   -7.6280    4.6730 C.3     1  UNL1        0.1506
      4 N          10.5730   -9.1080    4.6900 N.3     1  UNL1       -0.1275
      5 C          10.8480   -7.1070    3.2310 C.3     1  UNL1        0.0597
      6 C          10.9400   -5.5730    3.2520 C.3     1  UNL1        0.1821
      7 O          11.0780   -5.0830    1.9230 O.3     1  UNL1       -0.2204
      8 C          12.1360   -5.1420    4.1300 C.3     1  UNL1        0.1670
      9 O          11.9640   -5.6550    5.4840 O.3     1  UNL1       -0.3278
     10 C          12.2960   -3.6290    4.2390 C.3     1  UNL1        0.1414
     11 N          12.8880   -3.0460    3.0110 N.3     1  UNL1       -0.1286
     12 C          16.6710   -8.8990    7.1110 C.3     1  UNL1        0.1231
     13 N          17.8440   -8.9430    8.0180 N.3     1  UNL1       -0.1302
     14 C          16.7020   -7.6190    6.2650 C.3     1  UNL1        0.0432
     15 C          15.4810   -7.5950    5.3140 C.3     1  UNL1        0.1231
     16 N          15.6020   -6.4280    4.4010 N.3     1  UNL1       -0.1302
     17 C          14.1640   -7.6200    6.1180 C.3     1  UNL1        0.1680
     18 C          14.1220   -8.8650    7.0520 C.3     1  UNL1        0.2088
     19 O          12.9730   -8.7880    7.8810 O.3     1  UNL1       -0.2178
     20 C          15.3840   -8.9330    7.9490 C.3     1  UNL1        0.1680
     21 O          15.3560  -10.1530    8.7260 O.3     1  UNL1       -0.3269
     22 C          15.4240  -10.0450   10.1160 C.3     1  UNL1        0.2684
     23 C          15.9720  -11.3540   10.7140 C.3     1  UNL1        0.2279
     24 O          17.2730  -11.6090   10.2100 O.3     1  UNL1       -0.2161
     25 C          15.0350  -12.5060   10.3560 C.3     1  UNL1        0.1599
     26 N          15.5680  -13.8070   10.8290 N.3     1  UNL1       -0.1272
     27 C          13.6530  -12.2290   10.9700 C.3     1  UNL1        0.2017
     28 O          12.7480  -13.2800   10.6410 O.3     1  UNL1       -0.2188
     29 C          13.1070  -10.8690   10.4700 C.3     1  UNL1        0.1824
     30 O          14.0900   -9.7830   10.6480 O.3     1  UNL1       -0.3257
     31 C          11.8510  -10.4530   11.2130 C.3     1  UNL1        0.2142
     32 O          12.1120  -10.2250   12.5940 O.3     1  UNL1       -0.2176
@<TRIPOS>BOND
     1     1     2    1
     2     1     3    1
     3     1     9    1
     4     3     4    1
     5     3     5    1
     6     5     6    1
     7     6     7    1
     8     6     8    1
     9     8     9    1
    10     8    10    1
    11    10    11    1
    12    12    13    1
    13    12    14    1
    14    12    20    1
    15    14    15    1
    16    15    16    1
    17    15    17    1
    18    17     2    1
    19    17    18    1
    20    18    19    1
    21    18    20    1
    22    20    21    1
    23    22    21    1
    24    22    23    1
    25    22    30    1
    26    23    24    1
    27    23    25    1
    28    25    26    1
    29    25    27    1
    30    27    28    1
    31    27    29    1
    32    29    30    1
    33    29    31    1
    34    31    32    1
