REMARK  6 active torsions:
REMARK  status: ('A' for Active; 'I' for Inactive)
REMARK    1  A    between atoms: C_1  and  O_2 
REMARK    2  A    between atoms: C_17  and  O_2 
REMARK    3  A    between atoms: C_8  and  C_10 
REMARK    4  A    between atoms: C_20  and  O_21 
REMARK    5  A    between atoms: C_22  and  O_21 
REMARK    6  A    between atoms: C_29  and  C_31 
ROOT
ATOM      1  C   UNL d   1      16.671  -8.899   7.111  0.00  0.00     0.334 C 
ATOM      2  N   UNL d   1      17.844  -8.943   8.018  0.00  0.00     0.619 N 
ATOM      3  C   UNL d   1      16.702  -7.619   6.265  0.00  0.00     0.083 C 
ATOM      4  C   UNL d   1      15.481  -7.595   5.314  0.00  0.00     0.334 C 
ATOM      5  N   UNL d   1      15.602  -6.428   4.401  0.00  0.00     0.619 N 
ATOM      6  C   UNL d   1      14.164  -7.620   6.118  0.00  0.00     0.188 C 
ATOM      7  C   UNL d   1      14.122  -8.865   7.052  0.00  0.00     0.210 C 
ATOM      8  O   UNL d   1      12.973  -8.788   7.881  0.00  0.00    -0.218 OA
ATOM      9  C   UNL d   1      15.384  -8.933   7.949  0.00  0.00     0.188 C 
ENDROOT
BRANCH   9  10
ATOM     10  O   UNL d   1      15.356 -10.153   8.726  0.00  0.00    -0.327 OA
BRANCH  10  11
ATOM     11  C   UNL d   1      15.424 -10.045  10.116  0.00  0.00     0.269 C 
ATOM     12  C   UNL d   1      15.972 -11.354  10.714  0.00  0.00     0.248 C 
ATOM     13  O   UNL d   1      17.273 -11.609  10.210  0.00  0.00    -0.216 OA
ATOM     14  C   UNL d   1      15.035 -12.506  10.356  0.00  0.00     0.369 C 
ATOM     15  N   UNL d   1      15.568 -13.807  10.829  0.00  0.00     0.622 N 
ATOM     16  C   UNL d   1      13.653 -12.229  10.970  0.00  0.00     0.221 C 
ATOM     17  O   UNL d   1      12.748 -13.280  10.641  0.00  0.00    -0.218 OA
ATOM     18  C   UNL d   1      13.107 -10.869  10.470  0.00  0.00     0.183 C 
ATOM     19  O   UNL d   1      14.090  -9.783  10.648  0.00  0.00    -0.326 OA
BRANCH  18  20
ATOM     20  C   UNL d   1      11.851 -10.453  11.213  0.00  0.00     0.214 C 
ATOM     21  O   UNL d   1      12.112 -10.225  12.594  0.00  0.00    -0.218 OA
ENDBRANCH  18  20
ENDBRANCH  10  11
ENDBRANCH   9  10
BRANCH   6  22
ATOM     22  O   UNL d   1      13.055  -7.680   5.183  0.00  0.00    -0.327 OA
BRANCH  22  23
ATOM     23  C   UNL d   1      11.840  -7.108   5.575  0.00  0.00     0.274 C 
ATOM     24  C   UNL d   1      10.692  -7.628   4.673  0.00  0.00     0.360 C 
ATOM     25  N   UNL d   1      10.573  -9.108   4.690  0.00  0.00     0.621 N 
ATOM     26  C   UNL d   1      10.848  -7.107   3.231  0.00  0.00     0.080 C 
ATOM     27  C   UNL d   1      10.940  -5.573   3.252  0.00  0.00     0.184 C 
ATOM     28  O   UNL d   1      11.078  -5.083   1.923  0.00  0.00    -0.221 OA
ATOM     29  C   UNL d   1      12.136  -5.142   4.130  0.00  0.00     0.187 C 
ATOM     30  O   UNL d   1      11.964  -5.655   5.484  0.00  0.00    -0.327 OA
BRANCH  29  31
ATOM     31  C   UNL d   1      12.296  -3.629   4.239  0.00  0.00     0.370 C 
ATOM     32  N   UNL d   1      12.888  -3.046   3.011  0.00  0.00     0.621 N 
ENDBRANCH  29  31
ENDBRANCH  22  23
ENDBRANCH   6  22
TORSDOF 6
