1LC4_TOY_A_47
 OpenBabel10281719423D
Coordinates from PDB:1LC4:A:47 Model:1 without hydrogens
 69 71  0  0  0  0  0  0  0  0999 V2000
   11.8400   -7.1080    5.5750 C   0  0  2  0  0  0  0  0  0  0  0  0
   13.0550   -7.6800    5.1830 O   0  0  0  0  0  0  0  0  0  0  0  0
   10.6920   -7.6280    4.6730 C   0  0  2  0  0  0  0  0  0  0  0  0
   10.5730   -9.1080    4.6900 N   0  0  0  0  0  0  0  0  0  0  0  0
   10.8480   -7.1070    3.2310 C   0  0  0  0  0  0  0  0  0  0  0  0
   10.9400   -5.5730    3.2520 C   0  0  2  0  0  0  0  0  0  0  0  0
   11.0780   -5.0830    1.9230 O   0  0  0  0  0  0  0  0  0  0  0  0
   12.1360   -5.1420    4.1300 C   0  0  2  0  0  0  0  0  0  0  0  0
   11.9640   -5.6550    5.4840 O   0  0  0  0  0  0  0  0  0  0  0  0
   12.2960   -3.6290    4.2390 C   0  0  0  0  0  0  0  0  0  0  0  0
   12.8880   -3.0460    3.0110 N   0  0  0  0  0  0  0  0  0  0  0  0
   16.6710   -8.8990    7.1110 C   0  0  2  0  0  0  0  0  0  0  0  0
   17.8440   -8.9430    8.0180 N   0  0  0  0  0  0  0  0  0  0  0  0
   16.7020   -7.6190    6.2650 C   0  0  0  0  0  0  0  0  0  0  0  0
   15.4810   -7.5950    5.3140 C   0  0  2  0  0  0  0  0  0  0  0  0
   15.6020   -6.4280    4.4010 N   0  0  0  0  0  0  0  0  0  0  0  0
   14.1640   -7.6200    6.1180 C   0  0  2  0  0  0  0  0  0  0  0  0
   14.1220   -8.8650    7.0520 C   0  0  2  0  0  0  0  0  0  0  0  0
   12.9730   -8.7880    7.8810 O   0  0  0  0  0  0  0  0  0  0  0  0
   15.3840   -8.9330    7.9490 C   0  0  1  0  0  0  0  0  0  0  0  0
   15.3560  -10.1530    8.7260 O   0  0  0  0  0  0  0  0  0  0  0  0
   15.4240  -10.0450   10.1160 C   0  0  2  0  0  0  0  0  0  0  0  0
   15.9720  -11.3540   10.7140 C   0  0  2  0  0  0  0  0  0  0  0  0
   17.2730  -11.6090   10.2100 O   0  0  0  0  0  0  0  0  0  0  0  0
   15.0350  -12.5060   10.3560 C   0  0  1  0  0  0  0  0  0  0  0  0
   15.5680  -13.8070   10.8290 N   0  0  0  0  0  0  0  0  0  0  0  0
   13.6530  -12.2290   10.9700 C   0  0  2  0  0  0  0  0  0  0  0  0
   12.7480  -13.2800   10.6410 O   0  0  0  0  0  0  0  0  0  0  0  0
   13.1070  -10.8690   10.4700 C   0  0  2  0  0  0  0  0  0  0  0  0
   14.0900   -9.7830   10.6480 O   0  0  0  0  0  0  0  0  0  0  0  0
   11.8510  -10.4530   11.2130 C   0  0  0  0  0  0  0  0  0  0  0  0
   12.1120  -10.2250   12.5940 O   0  0  0  0  0  0  0  0  0  0  0  0
   11.6081   -7.3807    6.5833 H   0  0  0  0  0  0  0  0  0  0  0  0
    9.7817   -7.2419    5.0819 H   0  0  0  0  0  0  0  0  0  0  0  0
   11.4229   -9.5219    4.3069 H   0  0  0  0  0  0  0  0  0  0  0  0
    9.7724   -9.3912    4.1250 H   0  0  0  0  0  0  0  0  0  0  0  0
   10.0013   -7.4063    2.6493 H   0  0  0  0  0  0  0  0  0  0  0  0
   11.7378   -7.5134    2.7975 H   0  0  0  0  0  0  0  0  0  0  0  0
   10.0459   -5.1598    3.6700 H   0  0  0  0  0  0  0  0  0  0  0  0
   11.8848   -5.4472    1.5263 H   0  0  0  0  0  0  0  0  0  0  0  0
   13.0064   -5.5413    3.6526 H   0  0  0  0  0  0  0  0  0  0  0  0
   12.9336   -3.4074    5.0693 H   0  0  0  0  0  0  0  0  0  0  0  0
   11.3244   -3.2016    4.3741 H   0  0  0  0  0  0  0  0  0  0  0  0
   13.8170   -3.4397    2.8615 H   0  0  0  0  0  0  0  0  0  0  0  0
   12.9604   -2.0340    3.1159 H   0  0  0  0  0  0  0  0  0  0  0  0
   16.7000   -9.7447    6.4562 H   0  0  0  0  0  0  0  0  0  0  0  0
   17.8200   -8.1381    8.6441 H   0  0  0  0  0  0  0  0  0  0  0  0
   18.7015   -8.9191    7.4662 H   0  0  0  0  0  0  0  0  0  0  0  0
   17.6030   -7.5951    5.6883 H   0  0  0  0  0  0  0  0  0  0  0  0
   16.6667   -6.7660    6.9100 H   0  0  0  0  0  0  0  0  0  0  0  0
   15.4614   -8.4747    4.7052 H   0  0  0  0  0  0  0  0  0  0  0  0
   15.6238   -5.5682    4.9493 H   0  0  0  0  0  0  0  0  0  0  0  0
   14.8026   -6.4073    3.7678 H   0  0  0  0  0  0  0  0  0  0  0  0
   14.0972   -6.7391    6.7216 H   0  0  0  0  0  0  0  0  0  0  0  0
   14.0878   -9.7431    6.4415 H   0  0  0  0  0  0  0  0  0  0  0  0
   13.0209   -7.9873    8.4264 H   0  0  0  0  0  0  0  0  0  0  0  0
   15.3794   -8.0793    8.5940 H   0  0  0  0  0  0  0  0  0  0  0  0
   16.0775   -9.2392   10.3779 H   0  0  0  0  0  0  0  0  0  0  0  0
   16.0286  -11.2626   11.7786 H   0  0  0  0  0  0  0  0  0  0  0  0
   17.2348  -11.6939    9.2445 H   0  0  0  0  0  0  0  0  0  0  0  0
   14.9525  -12.5701    9.2911 H   0  0  0  0  0  0  0  0  0  0  0  0
   15.6620  -13.7870   11.8445 H   0  0  0  0  0  0  0  0  0  0  0  0
   16.4811  -13.9743   10.4062 H   0  0  0  0  0  0  0  0  0  0  0  0
   13.7520  -12.1852   12.0345 H   0  0  0  0  0  0  0  0  0  0  0  0
   12.6486  -13.3313    9.6775 H   0  0  0  0  0  0  0  0  0  0  0  0
   12.8944  -11.0157    9.4316 H   0  0  0  0  0  0  0  0  0  0  0  0
   11.1198  -11.2287   11.1210 H   0  0  0  0  0  0  0  0  0  0  0  0
   11.4944   -9.5400   10.7839 H   0  0  0  0  0  0  0  0  0  0  0  0
   12.4369  -11.0433   13.0011 H   0  0  0  0  0  0  0  0  0  0  0  0
  1  2  1  0  0  0  0
  1  3  1  0  0  0  0
  1  9  1  0  0  0  0
  1 33  1  1  0  0  0
  3  4  1  0  0  0  0
  3  5  1  0  0  0  0
  3 34  1  1  0  0  0
  4 35  1  0  0  0  0
  4 36  1  0  0  0  0
  5  6  1  0  0  0  0
  5 37  1  0  0  0  0
  5 38  1  0  0  0  0
  6  7  1  0  0  0  0
  6  8  1  0  0  0  0
  6 39  1  1  0  0  0
  7 40  1  0  0  0  0
  8  9  1  0  0  0  0
  8 10  1  0  0  0  0
  8 41  1  6  0  0  0
 10 11  1  0  0  0  0
 10 42  1  0  0  0  0
 10 43  1  0  0  0  0
 11 44  1  0  0  0  0
 11 45  1  0  0  0  0
 12 13  1  0  0  0  0
 12 14  1  0  0  0  0
 12 20  1  0  0  0  0
 12 46  1  6  0  0  0
 13 47  1  0  0  0  0
 13 48  1  0  0  0  0
 14 15  1  0  0  0  0
 14 49  1  0  0  0  0
 14 50  1  0  0  0  0
 15 16  1  0  0  0  0
 15 17  1  0  0  0  0
 15 51  1  6  0  0  0
 16 52  1  0  0  0  0
 16 53  1  0  0  0  0
 17  2  1  0  0  0  0
 17 18  1  0  0  0  0
 17 54  1  1  0  0  0
 18 19  1  0  0  0  0
 18 20  1  0  0  0  0
 18 55  1  6  0  0  0
 19 56  1  0  0  0  0
 20 21  1  0  0  0  0
 20 57  1  1  0  0  0
 22 21  1  0  0  0  0
 22 23  1  0  0  0  0
 22 30  1  0  0  0  0
 22 58  1  1  0  0  0
 23 24  1  0  0  0  0
 23 25  1  0  0  0  0
 23 59  1  1  0  0  0
 24 60  1  0  0  0  0
 25 26  1  0  0  0  0
 25 27  1  0  0  0  0
 25 61  1  6  0  0  0
 26 62  1  0  0  0  0
 26 63  1  0  0  0  0
 27 28  1  0  0  0  0
 27 29  1  0  0  0  0
 27 64  1  1  0  0  0
 28 65  1  0  0  0  0
 29 30  1  0  0  0  0
 29 31  1  0  0  0  0
 29 66  1  6  0  0  0
 31 32  1  0  0  0  0
 31 67  1  0  0  0  0
 31 68  1  0  0  0  0
 32 69  1  0  0  0  0
A    1
C11
A    2
O11
A    3
C21
A    4
N21
A    5
C31
A    6
C41
A    7
O41
A    8
C51
A    9
O51
A   10
C61
A   11
N61
A   12
C12
A   13
N12
A   14
C22
A   15
C32
A   16
N32
A   17
C42
A   18
C52
A   19
O52
A   20
C62
A   21
O62
A   22
C13
A   23
C23
A   24
O23
A   25
C33
A   26
N33
A   27
C43
A   28
O43
A   29
C53
A   30
O53
A   31
C63
A   32
O63
M  END
>  <InstanceId>
1LC4_TOY_A_47

>  <ChemCompId>
TOY

>  <PdbId>
1LC4

>  <ChainId>
A

>  <ResidueNumber>
47

>  <InsertionCode>


>  <Model>
1

>  <AltIds>


>  <MissingHeavyAtoms>
0

>  <ObservedFormula>
C18 N5 O9

>  <Name>
TOBRAMYCIN

>  <SystematicName>
(2S,3R,4S,5S,6R)-4-amino-2-[(1S,2S,3R,4S,6R)-4,6-diamino-3-[(2R,3R,5S,6R)-3-amino-6-(aminomethyl)-5-hydroxy-oxan-2-yl]oxy-2-hydroxy-cyclohexyl]oxy-6-(hydroxymethyl)oxane-3,5-diol

>  <Synonyms>
4-AMINO-2-[4,6-DIAMINO-3-(3-AMINO-6-AMINOMETHYL-5-HYDROXY-TETRAHYDRO-PYRAN-2-YLOXY)-2-HYDROXY-CYCLOHEXYLOXY]-6-HYDROXYMETHYL-TETRAHYDRO-PYRAN-3,5-DIOL

>  <Type>
NON-POLYMER

>  <Formula>
C18 H37 N5 O9

>  <MolecularWeight>
467.514

>  <ModifiedDate>
2011-06-04

>  <Parent>


>  <OneLetterCode>


>  <SubcomponentList>


>  <AmbiguousFlag>
N

>  <InChI>
InChI=1S/C18H37N5O9/c19-3-9-8(25)2-7(22)17(29-9)31-15-5(20)1-6(21)16(14(15)28)32-18-13(27)11(23)12(26)10(4-24)30-18/h5-18,24-28H,1-4,19-23H2/t5-,6+,7+,8-,9+,10+,11-,12+,13+,14-,15+,16-,17+,18+/m0/s1

>  <InChIKey>
NLVFBUXFDBBNBW-PBSUHMDJSA-N

>  <SMILES>
C1[C@@H]([C@H]([C@@H]([C@H]([C@@H]1N)O[C@@H]2[C@@H]([C@H]([C@@H]([C@H](O2)CO)O)N)O)O)O[C@@H]3[C@@H](C[C@@H]([C@H](O3)CN)O)N)N

$$$$
