@<TRIPOS>MOLECULE
3DIQ_HRG_A_175
 29 28 0 0 0
SMALL
GASTEIGER

@<TRIPOS>ATOM
      1 N1          2.7640    1.2139   -0.4995 N.3     1  <1>        -0.3184
      2 C1          2.3409   -0.0999    0.0644 C.3     1  <1>         0.1032
      3 H1          2.7330   -0.8782   -0.6011 H       1  <1>         0.0574
      4 C2          2.8671   -0.3505    1.4863 C.3     1  <1>        -0.0273
      5 C3          2.4105    0.6820    2.5221 C.3     1  <1>        -0.0483
      6 C4          2.9130    0.3611    3.9337 C.3     1  <1>        -0.0222
      7 C5          2.3986    1.4122    4.9184 C.3     1  <1>         0.0646
      8 N2          2.8854    1.1717    6.2594 N.pl3   1  <1>        -0.2761
      9 C6          4.0723    1.5681    6.7556 C.cat   1  <1>         0.3762
     10 N3          4.9712    2.2924    6.2037 N.pl3   1  <1>        -0.1298
     11 N4          4.2542    1.1360    8.0190 N.pl3   1  <1>        -0.2893
     12 C7          0.8068   -0.1987   -0.0321 C.2     1  <1>         0.3217
     13 O1          0.0950   -0.9344    0.6350 O.2     1  <1>        -0.2493
     14 O2          0.3273    0.6391   -0.9887 O.3     1  <1>        -0.4795
     15 H2          3.7873    1.2510   -0.4728 H       1  <1>         0.1190
     16 H3          2.4700    1.9588    0.1398 H       1  <1>         0.1190
     17 H4          3.9641   -0.3740    1.4611 H       1  <1>         0.0286
     18 H5          2.5431   -1.3478    1.8115 H       1  <1>         0.0286
     19 H6          1.3158    0.7319    2.5366 H       1  <1>         0.0267
     20 H7          2.7768    1.6757    2.2421 H       1  <1>         0.0267
     21 H8          4.0095    0.3336    3.9422 H       1  <1>         0.0296
     22 H9          2.5681   -0.6345    4.2397 H       1  <1>         0.0296
     23 H10         1.3038    1.3803    4.9422 H       1  <1>         0.0655
     24 H11         2.6708    2.4201    4.5858 H       1  <1>         0.0655
     25 H12         2.5215    0.3296    6.6918 H       1  <1>         0.2579
     26 H13         4.6784    2.5442    5.2611 H       1  <1>         0.3062
     27 H14         3.4423    1.2855    8.6036 H       1  <1>         0.2546
     28 H15         5.0649    1.6026    8.4149 H       1  <1>         0.2546
     29 H16         1.1120    1.1164   -1.3562 H       1  <1>         0.2951
@<TRIPOS>BOND
     1     1     2    1
     2     1    15    1
     3     1    16    1
     4     2     3    1
     5     2     4    1
     6     2    12    1
     7     4     5    1
     8     4    17    1
     9     4    18    1
    10     5     6    1
    11     5    19    1
    12     5    20    1
    13     6     7    1
    14     6    21    1
    15     6    22    1
    16     7     8    1
    17     7    23    1
    18     7    24    1
    19     8     9    1
    20     8    25    1
    21     9    10    2
    22     9    11    1
    23    10    26    1
    24    11    27    1
    25    11    28    1
    26    12    13    2
    27    12    14    1
    28    14    29    1
