3DIQ_HRG_A_175
 OpenBabel03221817293D

 29 28  0  0  1  0  0  0  0  0999 V2000
    2.7640    1.2139   -0.4995 N   0  0  0  0  0  0  0  0  0  0  0  0
    2.3409   -0.0999    0.0644 C   0  0  1  0  0  0  0  0  0  0  0  0
    2.7330   -0.8782   -0.6011 H   0  0  0  0  0  0  0  0  0  0  0  0
    2.8671   -0.3505    1.4863 C   0  0  0  0  0  0  0  0  0  0  0  0
    2.4105    0.6820    2.5221 C   0  0  0  0  0  0  0  0  0  0  0  0
    2.9130    0.3611    3.9337 C   0  0  0  0  0  0  0  0  0  0  0  0
    2.3986    1.4122    4.9184 C   0  0  0  0  0  0  0  0  0  0  0  0
    2.8854    1.1717    6.2594 N   0  0  0  0  0  0  0  0  0  0  0  0
    4.0723    1.5681    6.7556 C   0  0  0  0  0  0  0  0  0  0  0  0
    4.9712    2.2924    6.2037 N   0  0  0  0  0  0  0  0  0  0  0  0
    4.2542    1.1360    8.0190 N   0  0  0  0  0  0  0  0  0  0  0  0
    0.8068   -0.1987   -0.0321 C   0  0  0  0  0  0  0  0  0  0  0  0
    0.0950   -0.9344    0.6350 O   0  0  0  0  0  0  0  0  0  0  0  0
    0.3273    0.6391   -0.9887 O   0  0  0  0  0  0  0  0  0  0  0  0
    3.7873    1.2510   -0.4728 H   0  0  0  0  0  0  0  0  0  0  0  0
    2.4700    1.9588    0.1398 H   0  0  0  0  0  0  0  0  0  0  0  0
    3.9641   -0.3740    1.4611 H   0  0  0  0  0  0  0  0  0  0  0  0
    2.5431   -1.3478    1.8115 H   0  0  0  0  0  0  0  0  0  0  0  0
    1.3158    0.7319    2.5366 H   0  0  0  0  0  0  0  0  0  0  0  0
    2.7768    1.6757    2.2421 H   0  0  0  0  0  0  0  0  0  0  0  0
    4.0095    0.3336    3.9422 H   0  0  0  0  0  0  0  0  0  0  0  0
    2.5681   -0.6345    4.2397 H   0  0  0  0  0  0  0  0  0  0  0  0
    1.3038    1.3803    4.9422 H   0  0  0  0  0  0  0  0  0  0  0  0
    2.6708    2.4201    4.5858 H   0  0  0  0  0  0  0  0  0  0  0  0
    2.5215    0.3296    6.6918 H   0  0  0  0  0  0  0  0  0  0  0  0
    4.6784    2.5442    5.2611 H   0  0  0  0  0  0  0  0  0  0  0  0
    3.4423    1.2855    8.6036 H   0  0  0  0  0  0  0  0  0  0  0  0
    5.0649    1.6026    8.4149 H   0  0  0  0  0  0  0  0  0  0  0  0
    1.1120    1.1164   -1.3562 H   0  0  0  0  0  0  0  0  0  0  0  0
  1  2  1  0  0  0  0
  1 15  1  0  0  0  0
  1 16  1  0  0  0  0
  2  3  1  6  0  0  0
  2  4  1  0  0  0  0
  2 12  1  0  0  0  0
  4  5  1  0  0  0  0
  4 17  1  0  0  0  0
  4 18  1  0  0  0  0
  5  6  1  0  0  0  0
  5 19  1  0  0  0  0
  5 20  1  0  0  0  0
  6  7  1  0  0  0  0
  6 21  1  0  0  0  0
  6 22  1  0  0  0  0
  7  8  1  0  0  0  0
  7 23  1  0  0  0  0
  7 24  1  0  0  0  0
  8  9  1  0  0  0  0
  8 25  1  0  0  0  0
  9 10  2  0  0  0  0
  9 11  1  0  0  0  0
 10 26  1  0  0  0  0
 11 27  1  0  0  0  0
 11 28  1  0  0  0  0
 12 13  2  0  0  0  0
 12 14  1  0  0  0  0
 14 29  1  0  0  0  0
M  END
$$$$
