REMARK  0 active torsions:
REMARK  status: ('A' for Active; 'I' for Inactive)
ROOT
ATOM      1  C   UNL d   1      -1.092  -2.790   0.256  0.00  0.00     0.164 C 
ATOM      2  N   UNL d   1      -0.523  -1.451   0.120  0.00  0.00    -0.269 N 
ATOM      3  C   UNL d   1      -1.426  -0.337   0.183  0.00  0.00     0.332 A 
ATOM      4  O   UNL d   1      -2.644  -0.484   0.341  0.00  0.00    -0.246 OA
ATOM      5  N   UNL d   1      -0.830   0.948   0.095  0.00  0.00    -0.286 N 
ATOM      6  C   UNL d   1      -1.685   2.128   0.126  0.00  0.00     0.163 C 
ATOM      7  C   UNL d   1       0.540   1.058  -0.121  0.00  0.00     0.167 A 
ATOM      8  C   UNL d   1       1.353  -0.044  -0.164  0.00  0.00     0.149 A 
ATOM      9  C   UNL d   1       0.889  -1.390  -0.042  0.00  0.00     0.281 A 
ATOM     10  O   UNL d   1       1.629  -2.369  -0.083  0.00  0.00    -0.265 OA
ATOM     11  N   UNL d   1       2.613   0.448  -0.358  0.00  0.00    -0.343 N 
ATOM     12  H   UNL d   1       3.474  -0.079  -0.442  0.00  0.00     0.167 HD
ATOM     13  C   UNL d   1       2.503   1.815  -0.408  0.00  0.00     0.210 A 
ATOM     14  N   UNL d   1       1.255   2.216  -0.280  0.00  0.00    -0.224 NA
ENDROOT
TORSDOF 0
