@<TRIPOS>MOLECULE
1O15_TEP_A_34
 21 22 0 0 0
SMALL
GASTEIGER

@<TRIPOS>ATOM
      1 C          -1.0922   -2.7897    0.2559 C.3     1  UNL1        0.0196
      2 N          -0.5229   -1.4513    0.1202 N.ar    1  UNL1       -0.2622
      3 C          -1.4264   -0.3373    0.1833 C.ar    1  UNL1        0.3331
      4 O          -2.6440   -0.4837    0.3406 O.2     1  UNL1       -0.2462
      5 N          -0.8302    0.9483    0.0953 N.ar    1  UNL1       -0.2796
      6 C          -1.6849    2.1284    0.1255 C.3     1  UNL1        0.0181
      7 C           0.5403    1.0580   -0.1207 C.ar    1  UNL1        0.1676
      8 C           1.3530   -0.0441   -0.1636 C.ar    1  UNL1        0.1488
      9 C           0.8893   -1.3898   -0.0415 C.ar    1  UNL1        0.2820
     10 O           1.6295   -2.3687   -0.0831 O.2     1  UNL1       -0.2652
     11 N           2.6132    0.4482   -0.3580 N.ar    1  UNL1       -0.3389
     12 H           3.4742   -0.0786   -0.4422 H       1  UNL1        0.1670
     13 C           2.5033    1.8151   -0.4078 C.ar    1  UNL1        0.0963
     14 N           1.2550    2.2163   -0.2801 N.ar    1  UNL1       -0.2179
     15 H          -2.1829   -2.7904    0.1629 H       1  UNL1        0.0458
     16 H          -0.8162   -3.1818    1.2395 H       1  UNL1        0.0458
     17 H          -0.6941   -3.4365   -0.5327 H       1  UNL1        0.0458
     18 H          -2.5644    1.9468    0.7519 H       1  UNL1        0.0458
     19 H          -1.1443    2.9769    0.5537 H       1  UNL1        0.0458
     20 H          -2.0113    2.3650   -0.8914 H       1  UNL1        0.0458
     21 H           3.3659    2.4522   -0.5523 H       1  UNL1        0.1027
@<TRIPOS>BOND
     1     2     1    1
     2     3     2   ar
     3     4     3    2
     4     5     3   ar
     5     6     5    1
     6     7     5   ar
     7     8     7   ar
     8     9     8   ar
     9     9     2   ar
    10    10     9    2
    11    11     8   ar
    12    11    12    1
    13    13    11   ar
    14    14    13   ar
    15    14     7   ar
    16     1    15    1
    17     1    16    1
    18     1    17    1
    19     6    18    1
    20     6    19    1
    21     6    20    1
    22    13    21    1
