REMARK  2 active torsions:
REMARK  status: ('A' for Active; 'I' for Inactive)
REMARK    1  A    between atoms: N_9  and  C_8 
REMARK    2  A    between atoms: N_12  and  C_11 
ROOT
ATOM      1  N   UNL d   1      -2.330  -0.465  -0.146  0.00  0.00    -0.333 N 
ATOM      2  H   UNL d   1      -2.955  -1.246  -0.293  0.00  0.00     0.168 HD
ATOM      3  C   UNL d   1      -2.658   0.864  -0.141  0.00  0.00     0.209 A 
ATOM      4  N   UNL d   1      -1.598   1.633  -0.003  0.00  0.00    -0.237 NA
ATOM      5  C   UNL d   1      -0.531   0.769  -0.015  0.00  0.00     0.144 A 
ATOM      6  C   UNL d   1      -0.969  -0.533  -0.135  0.00  0.00     0.164 A 
ATOM      7  N   UNL d   1      -0.225  -1.638  -0.185  0.00  0.00    -0.198 NA
ATOM      8  C   UNL d   1       1.096  -1.365  -0.135  0.00  0.00     0.202 A 
ATOM      9  N   UNL d   1       1.648  -0.133   0.004  0.00  0.00    -0.204 NA
ATOM     10  C   UNL d   1       0.849   0.971   0.047  0.00  0.00     0.137 A 
ENDROOT
BRANCH   8  11
ATOM     11  N   UNL d   1       1.968  -2.465  -0.228  0.00  0.00    -0.271 NA
ATOM     12  H   UNL d   1       2.351  -2.518  -1.169  0.00  0.00     0.127 HD
ATOM     13  H   UNL d   1       1.424  -3.302  -0.033  0.00  0.00     0.127 HD
ENDBRANCH   8  11
BRANCH  10  14
ATOM     14  N   UNL d   1       1.418   2.249   0.102  0.00  0.00    -0.285 NA
ATOM     15  H   UNL d   1       2.408   2.175  -0.125  0.00  0.00     0.125 HD
ATOM     16  H   UNL d   1       0.964   2.842  -0.588  0.00  0.00     0.125 HD
ENDBRANCH  10  14
TORSDOF 2
