4LVZ_6AP_A_101
  1228              3D

 17 18  0  0  0  0  0  0  0  0999 V2000
   -2.3296   -0.4648   -0.1460 N   0  0  0  0  0  0  0  0  0  0  0  0
   -2.9554   -1.2456   -0.2929 H   0  0  0  0  0  0  0  0  0  0  0  0
   -2.6579    0.8639   -0.1411 C   0  0  0  0  0  0  0  0  0  0  0  0
   -1.5978    1.6331   -0.0029 N   0  0  0  0  0  0  0  0  0  0  0  0
   -0.5311    0.7694   -0.0154 C   0  0  0  0  0  0  0  0  0  0  0  0
   -0.9693   -0.5328   -0.1349 C   0  0  0  0  0  0  0  0  0  0  0  0
   -0.2245   -1.6378   -0.1854 N   0  0  0  0  0  0  0  0  0  0  0  0
    1.0961   -1.3649   -0.1352 C   0  0  0  0  0  0  0  0  0  0  0  0
    1.9680   -2.4646   -0.2276 N   0  0  0  0  0  0  0  0  0  0  0  0
    1.6476   -0.1325    0.0037 N   0  0  0  0  0  0  0  0  0  0  0  0
    0.8492    0.9709    0.0472 C   0  0  0  0  0  0  0  0  0  0  0  0
    1.4183    2.2491    0.1024 N   0  0  0  0  0  0  0  0  0  0  0  0
   -3.6868    1.1917   -0.1322 H   0  0  0  0  0  0  0  0  0  0  0  0
    2.3514   -2.5179   -1.1693 H   0  0  0  0  0  0  0  0  0  0  0  0
    1.4237   -3.3020   -0.0325 H   0  0  0  0  0  0  0  0  0  0  0  0
    2.4077    2.1751   -0.1247 H   0  0  0  0  0  0  0  0  0  0  0  0
    0.9644    2.8418   -0.5883 H   0  0  0  0  0  0  0  0  0  0  0  0
  1  2  1  0  0  0  0
  3  1  1  0  0  0  0
  4  3  2  0  0  0  0
  5  4  1  0  0  0  0
  6  5  2  0  0  0  0
  6  1  1  0  0  0  0
  7  6  1  0  0  0  0
  8  7  2  0  0  0  0
  9  8  1  0  0  0  0
 10  8  1  0  0  0  0
 11 10  2  0  0  0  0
 11  5  1  0  0  0  0
 12 11  1  0  0  0  0
  3 13  1  0  0  0  0
  9 14  1  0  0  0  0
  9 15  1  0  0  0  0
 12 16  1  0  0  0  0
 12 17  1  0  0  0  0
M  END
>  <energy>
31.713942764047189

$$$$
