@<TRIPOS>MOLECULE
4LVZ_6AP_A_101
 17 18 0 0 0
SMALL
GASTEIGER

@<TRIPOS>ATOM
      1 N          -2.3296   -0.4648   -0.1460 N.ar    1  UNL1       -0.3291
      2 H          -2.9554   -1.2456   -0.2929 H       1  UNL1        0.1682
      3 C          -2.6579    0.8639   -0.1411 C.ar    1  UNL1        0.0957
      4 N          -1.5978    1.6331   -0.0029 N.ar    1  UNL1       -0.2308
      5 C          -0.5311    0.7694   -0.0154 C.ar    1  UNL1        0.1471
      6 C          -0.9693   -0.5328   -0.1349 C.ar    1  UNL1        0.1646
      7 N          -0.2245   -1.6378   -0.1854 N.ar    1  UNL1       -0.1951
      8 C           1.0961   -1.3649   -0.1352 C.ar    1  UNL1        0.2162
      9 N           1.9680   -2.4646   -0.2276 N.pl3   1  UNL1       -0.3274
     10 N           1.6476   -0.1325    0.0037 N.ar    1  UNL1       -0.1978
     11 C           0.8492    0.9709    0.0472 C.ar    1  UNL1        0.1490
     12 N           1.4183    2.2491    0.1024 N.pl3   1  UNL1       -0.3413
     13 H          -3.6868    1.1917   -0.1322 H       1  UNL1        0.1027
     14 H           2.3514   -2.5179   -1.1693 H       1  UNL1        0.1452
     15 H           1.4237   -3.3020   -0.0325 H       1  UNL1        0.1452
     16 H           2.4077    2.1751   -0.1247 H       1  UNL1        0.1438
     17 H           0.9644    2.8418   -0.5883 H       1  UNL1        0.1438
@<TRIPOS>BOND
     1     1     2    1
     2     3     1   ar
     3     4     3   ar
     4     5     4   ar
     5     6     5   ar
     6     6     1   ar
     7     7     6   ar
     8     8     7   ar
     9     9     8    1
    10    10     8   ar
    11    11    10   ar
    12    11     5   ar
    13    12    11    1
    14     3    13    1
    15     9    14    1
    16     9    15    1
    17    12    16    1
    18    12    17    1
