3MIJ_R14_A_30
 OpenBabel10091713583D
Coordinates from PDB:3MIJ:A:30 Model:1 without hydrogens
 56 62  0  0  0  0  0  0  0  0999 V2000
   26.3510  -24.5840   13.8910 C   0  0  0  0  0  0  0  0  0  0  0  0
   27.8710  -20.3820   13.3930 C   0  0  0  0  0  0  0  0  0  0  0  0
   31.0480  -16.1280  -17.7880 C   0  0  0  0  0  0  0  0  0  0  0  0
   30.8260  -12.3750  -15.9540 C   0  0  0  0  0  0  0  0  0  0  0  0
   25.6910  -21.5130    8.8870 O   0  0  0  0  0  0  0  0  0  0  0  0
   29.2420  -14.8490  -12.1690 O   0  0  0  0  0  0  0  0  0  0  0  0
   26.2100  -20.9720    5.0980 C   0  0  0  0  0  0  0  0  0  0  0  0
   27.3870  -16.1320   -8.8370 C   0  0  0  0  0  0  0  0  0  0  0  0
   26.3540  -21.4500    6.4000 C   0  0  0  0  0  0  0  0  0  0  0  0
   27.8700  -15.9870  -10.1470 C   0  0  0  0  0  0  0  0  0  0  0  0
   26.2530  -21.8580    4.0250 C   0  0  0  0  0  0  0  0  0  0  0  0
   27.1670  -17.4120   -8.3030 C   0  0  0  0  0  0  0  0  0  0  0  0
   26.4220  -26.5130   -0.4750 C   0  0  0  0  0  0  0  0  0  0  0  0
   26.7910  -23.9280   -7.1570 C   0  0  0  0  0  0  0  0  0  0  0  0
   26.4280  -26.7490   -1.8410 C   0  0  0  0  0  0  0  0  0  0  0  0
   26.6790  -25.0090   -6.3050 C   0  0  0  0  0  0  0  0  0  0  0  0
   26.5760  -23.6950    5.5560 C   0  0  0  0  0  0  0  0  0  0  0  0
   27.9160  -18.3820  -10.3820 C   0  0  0  0  0  0  0  0  0  0  0  0
   26.6300  -24.1520   -0.8790 C   0  0  0  0  0  0  0  0  0  0  0  0
   26.8820  -22.4270   -5.2810 C   0  0  0  0  0  0  0  0  0  0  0  0
   26.5540  -25.9060   -4.0860 C   0  0  0  0  0  0  0  0  0  0  0  0
   26.4220  -23.8150    1.9230 C   0  0  0  0  0  0  0  0  0  0  0  0
   27.2320  -20.3280   -7.3770 C   0  0  0  0  0  0  0  0  0  0  0  0
   27.2930  -23.8360   12.9210 C   0  0  0  0  0  0  0  0  0  0  0  0
   27.9060  -21.5330   12.3850 C   0  0  0  0  0  0  0  0  0  0  0  0
   31.9380  -15.6750  -16.6180 C   0  0  0  0  0  0  0  0  0  0  0  0
   31.8130  -13.4900  -15.5750 C   0  0  0  0  0  0  0  0  0  0  0  0
   26.4710  -23.3030   10.2960 C   0  0  0  0  0  0  0  0  0  0  0  0
   29.6990  -16.1320  -14.1700 C   0  0  0  0  0  0  0  0  0  0  0  0
   25.8670  -22.4800   11.4570 C   0  0  0  0  0  0  0  0  0  0  0  0
   31.0760  -15.4560  -14.3590 C   0  0  0  0  0  0  0  0  0  0  0  0
   26.6500  -25.4140    3.2800 N   0  0  0  0  0  0  0  0  0  0  0  0
   27.0020  -20.8720   -9.4190 N   0  0  0  0  0  0  0  0  0  0  0  0
   26.6610  -25.8830    2.1320 N   0  0  0  0  0  0  0  0  0  0  0  0
   26.8730  -21.8930   -8.7430 N   0  0  0  0  0  0  0  0  0  0  0  0
   26.7520  -23.3380   -3.0890 N   0  0  0  0  0  0  0  0  0  0  0  0
   26.6830  -23.2840    7.8840 N   0  0  0  0  0  0  0  0  0  0  0  0
   28.6170  -17.0500  -12.1920 N   0  0  0  0  0  0  0  0  0  0  0  0
   26.2380  -22.6120    8.9470 C   0  0  0  0  0  0  0  0  0  0  0  0
   29.1680  -15.9460  -12.7320 C   0  0  0  0  0  0  0  0  0  0  0  0
   26.5380  -22.8100    6.6340 C   0  0  0  0  0  0  0  0  0  0  0  0
   28.1380  -17.1240  -10.9250 C   0  0  0  0  0  0  0  0  0  0  0  0
   26.4300  -23.2210    4.2580 C   0  0  0  0  0  0  0  0  0  0  0  0
   27.4410  -18.5390   -9.0800 C   0  0  0  0  0  0  0  0  0  0  0  0
   26.5160  -25.2140    0.0030 C   0  0  0  0  0  0  0  0  0  0  0  0
   26.8920  -22.6370   -6.6560 C   0  0  0  0  0  0  0  0  0  0  0  0
   26.4880  -24.1040    3.1990 C   0  0  0  0  0  0  0  0  0  0  0  0
   27.2300  -19.8430   -8.6200 C   0  0  0  0  0  0  0  0  0  0  0  0
   26.5410  -25.6840   -2.7230 C   0  0  0  0  0  0  0  0  0  0  0  0
   26.6610  -24.8130   -4.9370 C   0  0  0  0  0  0  0  0  0  0  0  0
   26.6420  -24.3810   -2.2420 C   0  0  0  0  0  0  0  0  0  0  0  0
   26.7620  -23.5250   -4.4180 C   0  0  0  0  0  0  0  0  0  0  0  0
   26.7760  -22.4640   12.6310 N   0  0  0  0  0  0  0  0  0  0  0  0
   31.1560  -14.8150  -15.6960 N   0  0  0  0  0  0  0  0  0  0  0  0
   26.5200  -24.9780    1.3040 N   0  0  0  0  0  0  0  0  0  0  0  0
   26.9960  -21.6390   -7.5390 N   0  0  0  0  0  0  0  0  0  0  0  0
  3 26  1  0  0  0  0
  4 27  1  0  0  0  0
  5 39  2  0  0  0  0
  7  9  1  0  0  0  0
  8 12  1  0  0  0  0
  9 41  2  0  0  0  0
 10  8  2  0  0  0  0
 11  7  2  0  0  0  0
 11 43  1  0  0  0  0
 13 45  1  0  0  0  0
 14 46  2  0  0  0  0
 14 16  1  0  0  0  0
 15 13  2  0  0  0  0
 16 50  2  0  0  0  0
 17 41  1  0  0  0  0
 18 44  1  0  0  0  0
 19 45  2  0  0  0  0
 20 52  2  0  0  0  0
 21 49  2  0  0  0  0
 22 47  2  0  0  0  0
 24  1  1  0  0  0  0
 25  2  1  0  0  0  0
 25 53  1  0  0  0  0
 26 54  1  0  0  0  0
 28 30  1  0  0  0  0
 29 40  1  0  0  0  0
 30 53  1  0  0  0  0
 31 29  1  0  0  0  0
 33 35  2  0  0  0  0
 33 48  1  0  0  0  0
 34 32  2  0  0  0  0
 35 56  1  0  0  0  0
 36 51  2  0  0  0  0
 37 39  1  0  0  0  0
 38 42  1  0  0  0  0
 39 28  1  0  0  0  0
 40  6  2  0  0  0  0
 40 38  1  0  0  0  0
 41 37  1  0  0  0  0
 42 10  1  0  0  0  0
 42 18  2  0  0  0  0
 43 17  2  0  0  0  0
 44 12  2  0  0  0  0
 44 48  1  0  0  0  0
 45 55  1  0  0  0  0
 46 20  1  0  0  0  0
 47 32  1  0  0  0  0
 47 43  1  0  0  0  0
 48 23  2  0  0  0  0
 49 15  1  0  0  0  0
 49 51  1  0  0  0  0
 50 21  1  0  0  0  0
 50 52  1  0  0  0  0
 51 19  1  0  0  0  0
 52 36  1  0  0  0  0
 53 24  1  0  0  0  0
 54 27  1  0  0  0  0
 54 31  1  0  0  0  0
 55 22  1  0  0  0  0
 55 34  1  0  0  0  0
 56 23  1  0  0  0  0
 56 46  1  0  0  0  0
A    1
CAA
A    2
CAB
A    3
CAC
A    4
CAD
A    5
OAE
A    6
OAF
A    7
CAG
A    8
CAH
A    9
CAI
A   10
CAJ
A   11
CAK
A   12
CAL
A   13
CAM
A   14
CAN
A   15
CAO
A   16
CAP
A   17
CAQ
A   18
CAR
A   19
CAS
A   20
CAT
A   21
CAU
A   22
CAV
A   23
CAW
A   24
CAX
A   25
CAY
A   26
CAZ
A   27
CBA
A   28
CBB
A   29
CBC
A   30
CBD
A   31
CBE
A   32
NBF
A   33
NBG
A   34
NBH
A   35
NBI
A   36
NBJ
A   37
NBK
A   38
NBL
A   39
CBM
A   40
CBN
A   41
CBO
A   42
CBP
A   43
CBQ
A   44
CBR
A   45
CBS
A   46
CBT
A   47
CBU
A   48
CBV
A   49
CBW
A   50
CBX
A   51
CBY
A   52
CBZ
A   53
NCA
A   54
NCB
A   55
NCC
A   56
NCD
M  END
>  <InstanceId>
3MIJ_R14_A_30

>  <ChemCompId>
R14

>  <PdbId>
3MIJ

>  <ChainId>
A

>  <ResidueNumber>
30

>  <InsertionCode>


>  <Model>
1

>  <AltIds>


>  <MissingHeavyAtoms>
0

>  <ObservedFormula>
C43 N11 O2

>  <Name>
N,N'-[acridine-3,6-diylbis(1H-1,2,3-triazole-1,4-diylbenzene-3,1-diyl)]bis[3-(diethylamino)propanamide]

>  <SystematicName>
3-(diethylamino)-N-[3-[1-[6-[4-[3-[3-(diethylamino)propanoylamino]phenyl]-1,2,3-triazol-1-yl]acridin-3-yl]-1,2,3-triazol-4-yl]phenyl]propanamide

>  <Synonyms>
triazole-acridine conjugate

>  <Type>
NON-POLYMER

>  <Formula>
C43 H47 N11 O2

>  <MolecularWeight>
749.906

>  <ModifiedDate>
2011-06-04

>  <Parent>


>  <OneLetterCode>


>  <SubcomponentList>


>  <AmbiguousFlag>
N

>  <InChI>
InChI=1S/C43H47N11O2/c1-5-51(6-2)21-19-42(55)44-34-13-9-11-30(24-34)40-28-53(49-47-40)36-17-15-32-23-33-16-18-37(27-39(33)46-38(32)26-36)54-29-41(48-50-54)31-12-10-14-35(25-31)45-43(56)20-22-52(7-3)8-4/h9-18,23-29H,5-8,19-22H2,1-4H3,(H,44,55)(H,45,56)

>  <InChIKey>
HZKPUBMHIBOFRM-UHFFFAOYSA-N

>  <SMILES>
CCN(CC)CCC(=O)Nc1cccc(c1)c2cn(nn2)c3ccc4cc5ccc(cc5nc4c3)n6cc(nn6)c7cccc(c7)NC(=O)CCN(CC)CC

$$$$
