@<TRIPOS>MOLECULE
3MIJ_R14_A_30
 56 62 0 0 0
SMALL
GASTEIGER
****
Coordinates from PDB:3MIJ:A:30 Model:1 without hydrogens
@<TRIPOS>ATOM
      1 C          26.3510  -24.5840   13.8910 C.3     1  UNL1        0.0188
      2 C          27.8710  -20.3820   13.3930 C.3     1  UNL1        0.0188
      3 C          31.0480  -16.1280  -17.7880 C.3     1  UNL1        0.0188
      4 C          30.8260  -12.3750  -15.9540 C.3     1  UNL1        0.0188
      5 O          25.6910  -21.5130    8.8870 O.2     1  UNL1       -0.2729
      6 O          29.2420  -14.8490  -12.1690 O.2     1  UNL1       -0.2729
      7 C          26.2100  -20.9720    5.0980 C.ar    1  UNL1        0.0014
      8 C          27.3870  -16.1320   -8.8370 C.ar    1  UNL1        0.0014
      9 C          26.3540  -21.4500    6.4000 C.ar    1  UNL1        0.0166
     10 C          27.8700  -15.9870  -10.1470 C.ar    1  UNL1        0.0166
     11 C          26.2530  -21.8580    4.0250 C.ar    1  UNL1        0.0017
     12 C          27.1670  -17.4120   -8.3030 C.ar    1  UNL1        0.0017
     13 C          26.4220  -26.5130   -0.4750 C.ar    1  UNL1        0.0193
     14 C          26.7910  -23.9280   -7.1570 C.ar    1  UNL1        0.0193
     15 C          26.4280  -26.7490   -1.8410 C.ar    1  UNL1        0.0030
     16 C          26.6790  -25.0090   -6.3050 C.ar    1  UNL1        0.0030
     17 C          26.5760  -23.6950    5.5560 C.ar    1  UNL1        0.0182
     18 C          27.9160  -18.3820  -10.3820 C.ar    1  UNL1        0.0182
     19 C          26.6300  -24.1520   -0.8790 C.ar    1  UNL1        0.0383
     20 C          26.8820  -22.4270   -5.2810 C.ar    1  UNL1        0.0383
     21 C          26.5540  -25.9060   -4.0860 C.ar    1  UNL1        0.0030
     22 C          26.4220  -23.8150    1.9230 C.ar    1  UNL1        0.1229
     23 C          27.2320  -20.3280   -7.3770 C.ar    1  UNL1        0.1229
     24 C          27.2930  -23.8360   12.9210 C.3     1  UNL1        0.0721
     25 C          27.9060  -21.5330   12.3850 C.3     1  UNL1        0.0721
     26 C          31.9380  -15.6750  -16.6180 C.3     1  UNL1        0.0721
     27 C          31.8130  -13.4900  -15.5750 C.3     1  UNL1        0.0721
     28 C          26.4710  -23.3030   10.2960 C.3     1  UNL1        0.1045
     29 C          29.6990  -16.1320  -14.1700 C.3     1  UNL1        0.1045
     30 C          25.8670  -22.4800   11.4570 C.3     1  UNL1        0.0818
     31 C          31.0760  -15.4560  -14.3590 C.3     1  UNL1        0.0818
     32 N          26.6500  -25.4140    3.2800 N.ar    1  UNL1       -0.1284
     33 N          27.0020  -20.8720   -9.4190 N.ar    1  UNL1       -0.1284
     34 N          26.6610  -25.8830    2.1320 N.ar    1  UNL1       -0.0595
     35 N          26.8730  -21.8930   -8.7430 N.ar    1  UNL1       -0.0595
     36 N          26.7520  -23.3380   -3.0890 N.ar    1  UNL1       -0.2453
     37 N          26.6830  -23.2840    7.8840 N.am    1  UNL1       -0.1792
     38 N          28.6170  -17.0500  -12.1920 N.am    1  UNL1       -0.1792
     39 C          26.2380  -22.6120    8.9470 C.2     1  UNL1        0.2470
     40 C          29.1680  -15.9460  -12.7320 C.2     1  UNL1        0.2470
     41 C          26.5380  -22.8100    6.6340 C.ar    1  UNL1        0.0734
     42 C          28.1380  -17.1240  -10.9250 C.ar    1  UNL1        0.0734
     43 C          26.4300  -23.2210    4.2580 C.ar    1  UNL1        0.0223
     44 C          27.4410  -18.5390   -9.0800 C.ar    1  UNL1        0.0223
     45 C          26.5160  -25.2140    0.0030 C.ar    1  UNL1        0.0860
     46 C          26.8920  -22.6370   -6.6560 C.ar    1  UNL1        0.0860
     47 C          26.4880  -24.1040    3.1990 C.ar    1  UNL1        0.1236
     48 C          27.2300  -19.8430   -8.6200 C.ar    1  UNL1        0.1236
     49 C          26.5410  -25.6840   -2.7230 C.ar    1  UNL1        0.0178
     50 C          26.6610  -24.8130   -4.9370 C.ar    1  UNL1        0.0178
     51 C          26.6420  -24.3810   -2.2420 C.ar    1  UNL1        0.0828
     52 C          26.7620  -23.5250   -4.4180 C.ar    1  UNL1        0.0828
     53 N          26.7760  -22.4640   12.6310 N.3     1  UNL1       -0.2722
     54 N          31.1560  -14.8150  -15.6960 N.3     1  UNL1       -0.2722
     55 N          26.5200  -24.9780    1.3040 N.ar    1  UNL1       -0.2089
     56 N          26.9960  -21.6390   -7.5390 N.ar    1  UNL1       -0.2089
@<TRIPOS>BOND
     1     3    26    1
     2     4    27    1
     3     5    39    2
     4     7     9   ar
     5     8    12   ar
     6     9    41   ar
     7    10     8   ar
     8    11     7   ar
     9    11    43   ar
    10    13    45   ar
    11    14    46   ar
    12    14    16   ar
    13    15    13   ar
    14    16    50   ar
    15    17    41   ar
    16    18    44   ar
    17    19    45   ar
    18    20    52   ar
    19    21    49   ar
    20    22    47   ar
    21    24     1    1
    22    25     2    1
    23    25    53    1
    24    26    54    1
    25    28    30    1
    26    29    40    1
    27    30    53    1
    28    31    29    1
    29    33    35   ar
    30    33    48   ar
    31    34    32   ar
    32    35    56   ar
    33    36    51   ar
    34    37    39   am
    35    38    42    1
    36    39    28    1
    37    40     6    2
    38    40    38   am
    39    41    37    1
    40    42    10   ar
    41    42    18   ar
    42    43    17   ar
    43    44    12   ar
    44    44    48    1
    45    45    55    1
    46    46    20   ar
    47    47    32   ar
    48    47    43    1
    49    48    23   ar
    50    49    15   ar
    51    49    51   ar
    52    50    21   ar
    53    50    52   ar
    54    51    19   ar
    55    52    36   ar
    56    53    24    1
    57    54    27    1
    58    54    31    1
    59    55    22   ar
    60    55    34   ar
    61    56    23   ar
    62    56    46    1
