REMARK  5 active torsions:
REMARK  status: ('A' for Active; 'I' for Inactive)
REMARK    1  A    between atoms: O5*_1  and  C5*_2 
REMARK    2  A    between atoms: C5*_2  and  C4*_3 
REMARK    3  A    between atoms: C1*_5  and  N9_6 
REMARK    4  A    between atoms: C2_13  and  N2_17 
REMARK    5  A    between atoms: C3*_19  and  O3*_20 
ROOT
ATOM      1  N9   G1 d           2.771  -4.295   2.334  0.00  0.00    -0.298 N 
ATOM      2  C8   G1 d           3.005  -5.655   2.347  0.00  0.00     0.214 A 
ATOM      3  N7   G1 d           2.548  -6.236   3.438  0.00  0.00    -0.234 NA
ATOM      4  C5   G1 d           2.013  -5.208   4.183  0.00  0.00     0.172 A 
ATOM      5  C4   G1 d           2.142  -4.022   3.502  0.00  0.00     0.148 A 
ATOM      6  N3   G1 d           1.722  -2.858   4.013  0.00  0.00    -0.315 N 
ATOM      7  H3   G1 d           1.908  -1.968   3.561  0.00  0.00     0.170 HD
ATOM      8  C2   G1 d           1.199  -2.898   5.280  0.00  0.00     0.182 A 
ATOM      9  N1   G1 d           1.028  -3.962   6.011  0.00  0.00    -0.179 NA
ATOM     10  C6   G1 d           1.399  -5.218   5.519  0.00  0.00     0.302 A 
ATOM     11  O6   G1 d           1.230  -6.252   6.157  0.00  0.00    -0.263 OA
ENDROOT
BRANCH   1  12
ATOM     12  C1*  G1 d           3.230  -3.417   1.275  0.00  0.00     0.233 C 
ATOM     13  O4*  G1 d           2.871  -2.039   1.507  0.00  0.00    -0.356 OA
ATOM     14  C4*  G1 d           3.080  -1.414   0.220  0.00  0.00     0.176 C 
ATOM     15  C3*  G1 d           2.559  -2.421  -0.803  0.00  0.00     0.153 C 
ATOM     16  C2*  G1 d           2.669  -3.761  -0.100  0.00  0.00     0.088 C 
BRANCH  14  17
ATOM     17  C5*  G1 d           2.430  -0.035   0.119  0.00  0.00     0.198 C 
BRANCH  17  18
ATOM     18  O5*  G1 d           1.013  -0.110   0.248  0.00  0.00    -0.398 OA
ATOM     19  H5*  G1 d           0.674   0.796   0.137  0.00  0.00     0.209 HD
ENDBRANCH  17  18
ENDBRANCH  14  17
BRANCH  15  20
ATOM     20  O3*  G1 d           3.362  -2.405  -1.978  0.00  0.00    -0.393 OA
ATOM     21  H3*  G1 d           2.948  -3.006  -2.624  0.00  0.00     0.210 HD
ENDBRANCH  15  20
ENDBRANCH   1  12
BRANCH   8  22
ATOM     22  N2   G1 d           0.854  -1.680   5.767  0.00  0.00    -0.272 NA
ATOM     23  H21  G1 d           0.377  -1.079   5.109  0.00  0.00     0.127 HD
ATOM     24  H22  G1 d           0.325  -1.775   6.631  0.00  0.00     0.127 HD
ENDBRANCH   8  22
TORSDOF 5
