@<TRIPOS>MOLECULE
3SKR_GNG_A_120
 32 34 0 0 0
SMALL
GASTEIGER

@<TRIPOS>ATOM
      1 O5*         1.0128   -0.1104    0.2480 O.3     1    G1       -0.3924
      2 C5*         2.4298   -0.0348    0.1191 C.3     1    G1        0.0729
      3 C4*         3.0802   -1.4136    0.2204 C.3     1    G1        0.1100
      4 H4*         4.1634   -1.2746    0.0998 H       1    G1        0.0646
      5 O4*         2.8706   -2.0386    1.5069 O.3     1    G1       -0.3484
      6 C1*         3.2302   -3.4173    1.2751 C.3     1    G1        0.1407
      7 H1*         4.3266   -3.4753    1.2785 H       1    G1        0.0840
      8 N9          2.7712   -4.2948    2.3341 N.ar    1    G1       -0.2893
      9 C8          3.0050   -5.6555    2.3466 C.ar    1    G1        0.1004
     10 N7          2.5477   -6.2356    3.4382 N.ar    1    G1       -0.2286
     11 C5          2.0132   -5.2078    4.1831 C.ar    1    G1        0.1721
     12 C4          2.1418   -4.0222    3.5024 C.ar    1    G1        0.1482
     13 N3          1.7221   -2.8580    4.0133 N.ar    1    G1       -0.3122
     14 H3          1.9080   -1.9678    3.5610 H       1    G1        0.1700
     15 C2          1.1988   -2.8982    5.2805 C.ar    1    G1        0.1952
     16 N1          1.0278   -3.9622    6.0115 N.ar    1    G1       -0.1756
     17 C6          1.3995   -5.2182    5.5191 C.ar    1    G1        0.3021
     18 O6          1.2297   -6.2519    6.1570 O.2     1    G1       -0.2633
     19 N2          0.8538   -1.6802    5.7669 N.pl3   1    G1       -0.3289
     20 C2*         2.6691   -3.7607   -0.1000 C.3     1    G1        0.0213
     21 C3*         2.5595   -2.4213   -0.8033 C.3     1    G1        0.0876
     22 H3*         1.5212   -2.2271   -1.0929 H       1    G1        0.0621
     23 O3*         3.3616   -2.4045   -1.9780 O.3     1    G1       -0.3890
     24 H5*         0.6741    0.7961    0.1366 H       1    G1        0.2095
     25 H5*1        2.8025    0.6179    0.9145 H       1    G1        0.0584
     26 H5*2        2.6603    0.4179   -0.8517 H       1    G1        0.0584
     27 H8          3.5154   -6.1653    1.5389 H       1    G1        0.1030
     28 H21         0.3765   -1.0785    5.1092 H       1    G1        0.1451
     29 H22         0.3252   -1.7748    6.6310 H       1    G1        0.1451
     30 H2*1        1.6702   -4.2059   -0.0136 H       1    G1        0.0335
     31 H2*2        3.3045   -4.4841   -0.6223 H       1    G1        0.0335
     32 H3*         2.9484   -3.0063   -2.6237 H       1    G1        0.2099
@<TRIPOS>BOND
     1     1     2    1
     2     1    24    1
     3     2     3    1
     4     2    25    1
     5     2    26    1
     6     3     4    1
     7     3     5    1
     8     3    21    1
     9     5     6    1
    10     6    20    1
    11     6     8    1
    12     6     7    1
    13     8     9   ar
    14     8    12   ar
    15     9    10   ar
    16     9    27    1
    17    10    11   ar
    18    11    12   ar
    19    11    17   ar
    20    12    13   ar
    21    13    14    1
    22    13    15   ar
    23    15    16   ar
    24    15    19    1
    25    16    17   ar
    26    17    18    2
    27    19    28    1
    28    19    29    1
    29    20    21    1
    30    20    30    1
    31    20    31    1
    32    21    22    1
    33    21    23    1
    34    23    32    1
