3SKR_GNG_A_120
 OpenBabel03221817313D

 32 34  0  0  1  0  0  0  0  0999 V2000
    1.0128   -0.1104    0.2480 O   0  0  0  0  0  0  0  0  0  0  0  0
    2.4298   -0.0348    0.1191 C   0  0  0  0  0  0  0  0  0  0  0  0
    3.0802   -1.4136    0.2204 C   0  0  1  0  0  0  0  0  0  0  0  0
    4.1634   -1.2746    0.0998 H   0  0  0  0  0  0  0  0  0  0  0  0
    2.8706   -2.0386    1.5069 O   0  0  0  0  0  0  0  0  0  0  0  0
    3.2302   -3.4173    1.2751 C   0  0  1  0  0  0  0  0  0  0  0  0
    4.3266   -3.4753    1.2785 H   0  0  0  0  0  0  0  0  0  0  0  0
    2.7712   -4.2948    2.3341 N   0  0  0  0  0  0  0  0  0  0  0  0
    3.0050   -5.6555    2.3466 C   0  0  0  0  0  0  0  0  0  0  0  0
    2.5477   -6.2356    3.4382 N   0  0  0  0  0  0  0  0  0  0  0  0
    2.0132   -5.2078    4.1831 C   0  0  0  0  0  0  0  0  0  0  0  0
    2.1418   -4.0222    3.5024 C   0  0  0  0  0  0  0  0  0  0  0  0
    1.7221   -2.8580    4.0133 N   0  0  0  0  0  0  0  0  0  0  0  0
    1.9080   -1.9678    3.5610 H   0  0  0  0  0  0  0  0  0  0  0  0
    1.1988   -2.8982    5.2805 C   0  0  0  0  0  0  0  0  0  0  0  0
    1.0278   -3.9622    6.0115 N   0  0  0  0  0  0  0  0  0  0  0  0
    1.3995   -5.2182    5.5191 C   0  0  0  0  0  0  0  0  0  0  0  0
    1.2297   -6.2519    6.1570 O   0  0  0  0  0  0  0  0  0  0  0  0
    0.8538   -1.6802    5.7669 N   0  0  0  0  0  0  0  0  0  0  0  0
    2.6691   -3.7607   -0.1000 C   0  0  0  0  0  0  0  0  0  0  0  0
    2.5595   -2.4213   -0.8033 C   0  0  2  0  0  0  0  0  0  0  0  0
    1.5212   -2.2271   -1.0929 H   0  0  0  0  0  0  0  0  0  0  0  0
    3.3616   -2.4045   -1.9780 O   0  0  0  0  0  0  0  0  0  0  0  0
    0.6741    0.7961    0.1366 H   0  0  0  0  0  0  0  0  0  0  0  0
    2.8025    0.6179    0.9145 H   0  0  0  0  0  0  0  0  0  0  0  0
    2.6603    0.4179   -0.8517 H   0  0  0  0  0  0  0  0  0  0  0  0
    3.5154   -6.1653    1.5389 H   0  0  0  0  0  0  0  0  0  0  0  0
    0.3765   -1.0785    5.1092 H   0  0  0  0  0  0  0  0  0  0  0  0
    0.3252   -1.7748    6.6310 H   0  0  0  0  0  0  0  0  0  0  0  0
    1.6702   -4.2059   -0.0136 H   0  0  0  0  0  0  0  0  0  0  0  0
    3.3045   -4.4841   -0.6223 H   0  0  0  0  0  0  0  0  0  0  0  0
    2.9484   -3.0063   -2.6237 H   0  0  0  0  0  0  0  0  0  0  0  0
  1  2  1  0  0  0  0
  1 24  1  0  0  0  0
  2  3  1  0  0  0  0
  2 25  1  0  0  0  0
  2 26  1  0  0  0  0
  3  4  1  0  0  0  0
  3  5  1  0  0  0  0
  3 21  1  6  0  0  0
  5  6  1  0  0  0  0
  6 20  1  0  0  0  0
  6  8  1  0  0  0  0
  6  7  1  6  0  0  0
  8  9  1  0  0  0  0
  8 12  1  0  0  0  0
  9 10  2  0  0  0  0
  9 27  1  0  0  0  0
 10 11  1  0  0  0  0
 11 12  2  0  0  0  0
 11 17  1  0  0  0  0
 12 13  1  0  0  0  0
 13 14  1  0  0  0  0
 13 15  1  0  0  0  0
 15 16  2  0  0  0  0
 15 19  1  0  0  0  0
 16 17  1  0  0  0  0
 17 18  2  0  0  0  0
 19 28  1  0  0  0  0
 19 29  1  0  0  0  0
 20 21  1  0  0  0  0
 20 30  1  0  0  0  0
 20 31  1  0  0  0  0
 21 22  1  6  0  0  0
 21 23  1  0  0  0  0
 23 32  1  0  0  0  0
M  END
$$$$
