@<TRIPOS>MOLECULE
2FCY_NMY_A_1001
 88 91 0 0 0
SMALL
GASTEIGER

@<TRIPOS>ATOM
      1 C           0.9059   -3.9115    7.4120 C.3     1  UNL1        0.1776
      2 H           1.1522   -4.8430    6.8870 H       1  UNL1        0.0927
      3 O           0.8308   -2.8503    6.4528 O.3     1  UNL1       -0.3422
      4 C           1.9245   -2.8269    5.5141 C.3     1  UNL1        0.1055
      5 H           2.5929   -3.6839    5.6880 H       1  UNL1        0.0639
      6 C           1.3237   -2.9539    4.0923 C.3     1  UNL1        0.1166
      7 H           0.7358   -3.8769    4.0170 H       1  UNL1        0.0650
      8 C           0.4070   -1.7607    3.7334 C.3     1  UNL1        0.0990
      9 H           0.4568   -1.5744    2.6521 H       1  UNL1        0.0636
     10 C           0.7168   -0.4715    4.5163 C.3     1  UNL1        0.0351
     11 H           0.1642   -0.4541    5.4635 H       1  UNL1        0.0485
     12 N           0.2520    0.6850    3.7491 N.3     1  UNL1       -0.3250
     13 C           2.2153   -0.3504    4.7895 C.3     1  UNL1       -0.0175
     14 C           2.7039   -1.4943    5.6975 C.3     1  UNL1        0.0355
     15 H           2.5847   -1.1543    6.7278 H       1  UNL1        0.0485
     16 N           4.1416   -1.7260    5.5137 N.3     1  UNL1       -0.3250
     17 O          -0.9487   -2.1215    4.0123 O.3     1  UNL1       -0.3876
     18 O           2.4087   -2.9663    3.1395 O.3     1  UNL1       -0.3402
     19 C           2.9950   -4.2417    2.9097 C.3     1  UNL1        0.1884
     20 H           2.5931   -5.0089    3.5844 H       1  UNL1        0.0938
     21 C           2.8077   -4.6389    1.4532 C.3     1  UNL1        0.1345
     22 H           2.9591   -3.7691    0.7962 H       1  UNL1        0.0671
     23 C           3.9259   -5.6442    1.2543 C.3     1  UNL1        0.1205
     24 H           4.1252   -5.8194    0.1932 H       1  UNL1        0.0651
     25 C           5.0574   -4.9883    2.0387 C.3     1  UNL1        0.1135
     26 H           5.6794   -5.7433    2.5291 H       1  UNL1        0.0647
     27 O           4.4279   -4.2132    3.0877 O.3     1  UNL1       -0.3405
     28 C           5.9319   -4.0531    1.2219 C.3     1  UNL1        0.0730
     29 O           6.6429   -4.7880    0.2384 O.3     1  UNL1       -0.3924
     30 O           3.5797   -6.8508    1.9393 O.3     1  UNL1       -0.3410
     31 C           3.8884   -8.0788    1.2792 C.3     1  UNL1        0.1776
     32 H           2.9730   -8.3603    0.7450 H       1  UNL1        0.0927
     33 C           4.2171   -9.1449    2.3575 C.3     1  UNL1        0.0853
     34 H           3.2630   -9.4750    2.7957 H       1  UNL1        0.0535
     35 C           4.9699  -10.3319    1.7362 C.3     1  UNL1        0.1033
     36 H           6.0562  -10.1956    1.8139 H       1  UNL1        0.0637
     37 C           4.6072  -10.4679    0.2593 C.3     1  UNL1        0.1100
     38 H           3.5274  -10.6168    0.1610 H       1  UNL1        0.0646
     39 C           5.0156   -9.1893   -0.5104 C.3     1  UNL1        0.1022
     40 H           4.2981   -9.0211   -1.3267 H       1  UNL1        0.0636
     41 O           4.9578   -8.0232    0.3379 O.3     1  UNL1       -0.3425
     42 C           6.4368   -9.2164   -1.0844 C.3     1  UNL1        0.0222
     43 N           6.4937   -9.8967   -2.3784 N.3     1  UNL1       -0.3276
     44 O           5.2098  -11.6365   -0.2847 O.3     1  UNL1       -0.3866
     45 O           4.6441  -11.5240    2.4437 O.3     1  UNL1       -0.3874
     46 N           5.0033   -8.5871    3.4671 N.3     1  UNL1       -0.3211
     47 O           1.5238   -5.1736    1.2133 O.3     1  UNL1       -0.3841
     48 C          -0.4528   -4.1097    8.1195 C.3     1  UNL1        0.0853
     49 H          -0.3687   -4.9972    8.7609 H       1  UNL1        0.0535
     50 N          -1.5323   -4.3587    7.1690 N.3     1  UNL1       -0.3211
     51 C          -0.7831   -2.9192    9.0290 C.3     1  UNL1        0.1033
     52 H          -0.9839   -2.0147    8.4372 H       1  UNL1        0.0637
     53 O          -1.9511   -3.2241    9.7923 O.3     1  UNL1       -0.3874
     54 C           0.3898   -2.6674    9.9884 C.3     1  UNL1        0.1100
     55 H           0.4794   -3.4953   10.7031 H       1  UNL1        0.0646
     56 O           0.1142   -1.4881   10.7487 O.3     1  UNL1       -0.3866
     57 C           1.6916   -2.5002    9.1874 C.3     1  UNL1        0.1022
     58 H           1.5729   -1.6523    8.5085 H       1  UNL1        0.0636
     59 O           1.9172   -3.6941    8.4132 O.3     1  UNL1       -0.3425
     60 C           2.9214   -2.2696   10.0853 C.3     1  UNL1        0.0222
     61 N           3.5850   -1.0220    9.7169 N.3     1  UNL1       -0.3276
     62 H          -0.7504    0.5928    3.5852 H       1  UNL1        0.1185
     63 H           0.3624    1.5317    4.3041 H       1  UNL1        0.1185
     64 H           2.4409    0.6110    5.2707 H       1  UNL1        0.0297
     65 H           2.7744   -0.3478    3.8474 H       1  UNL1        0.0297
     66 H           4.2852   -2.3980    4.7650 H       1  UNL1        0.1185
     67 H           4.5255   -2.1648    6.3534 H       1  UNL1        0.1185
     68 H          -0.9753   -2.4204    4.9424 H       1  UNL1        0.2100
     69 H           6.6562   -3.5566    1.8721 H       1  UNL1        0.0584
     70 H           5.3439   -3.2837    0.7109 H       1  UNL1        0.0584
     71 H           7.2735   -5.3652    0.7079 H       1  UNL1        0.2095
     72 H           7.1299   -9.7000   -0.3827 H       1  UNL1        0.0448
     73 H           6.7965   -8.1906   -1.2299 H       1  UNL1        0.0448
     74 H           6.5227  -10.9055   -2.2305 H       1  UNL1        0.1183
     75 H           7.3794   -9.6695   -2.8297 H       1  UNL1        0.1183
     76 H           4.7982  -12.4035    0.1531 H       1  UNL1        0.2100
     77 H           3.7110  -11.7286    2.2595 H       1  UNL1        0.2100
     78 H           4.3783   -8.3133    4.2289 H       1  UNL1        0.1187
     79 H           5.6221   -9.2965    3.8623 H       1  UNL1        0.1187
     80 H           1.3068   -4.9994    0.2784 H       1  UNL1        0.2101
     81 H          -1.2719   -5.1202    6.5413 H       1  UNL1        0.1187
     82 H          -1.6755   -3.5414    6.5787 H       1  UNL1        0.1187
     83 H          -2.3374   -2.3795   10.0806 H       1  UNL1        0.2100
     84 H           0.4860   -0.7249   10.2753 H       1  UNL1        0.2100
     85 H           2.6468   -2.2332   11.1450 H       1  UNL1        0.0448
     86 H           3.6440   -3.0875    9.9826 H       1  UNL1        0.0448
     87 H           4.4634   -0.9315   10.2269 H       1  UNL1        0.1183
     88 H           3.0070   -0.2305   10.0008 H       1  UNL1        0.1183
@<TRIPOS>BOND
     1     1     2    1
     2     3     1    1
     3     4     3    1
     4     4     5    1
     5     6     4    1
     6     6     7    1
     7     8     6    1
     8     8     9    1
     9    10     8    1
    10    10    11    1
    11    12    10    1
    12    13    10    1
    13    14    13    1
    14    14    15    1
    15    14     4    1
    16    16    14    1
    17    17     8    1
    18    18     6    1
    19    19    18    1
    20    19    20    1
    21    21    19    1
    22    21    22    1
    23    23    21    1
    24    23    24    1
    25    25    23    1
    26    25    26    1
    27    27    25    1
    28    27    19    1
    29    28    25    1
    30    29    28    1
    31    30    23    1
    32    31    30    1
    33    31    32    1
    34    33    31    1
    35    33    34    1
    36    35    33    1
    37    35    36    1
    38    37    35    1
    39    37    38    1
    40    39    37    1
    41    39    40    1
    42    41    39    1
    43    41    31    1
    44    42    39    1
    45    43    42    1
    46    44    37    1
    47    45    35    1
    48    46    33    1
    49    47    21    1
    50    48     1    1
    51    48    49    1
    52    50    48    1
    53    51    48    1
    54    51    52    1
    55    53    51    1
    56    54    51    1
    57    54    55    1
    58    56    54    1
    59    57    54    1
    60    57    58    1
    61    59    57    1
    62    59     1    1
    63    60    57    1
    64    61    60    1
    65    12    62    1
    66    12    63    1
    67    13    64    1
    68    13    65    1
    69    16    66    1
    70    16    67    1
    71    17    68    1
    72    28    69    1
    73    28    70    1
    74    29    71    1
    75    42    72    1
    76    42    73    1
    77    43    74    1
    78    43    75    1
    79    44    76    1
    80    45    77    1
    81    46    78    1
    82    46    79    1
    83    47    80    1
    84    50    81    1
    85    50    82    1
    86    53    83    1
    87    56    84    1
    88    60    85    1
    89    60    86    1
    90    61    87    1
    91    61    88    1
