@<TRIPOS>MOLECULE
3S4P_JS6_A_50
 111 115 0 0 0
SMALL
GASTEIGER

@<TRIPOS>ATOM
      1 C           3.3907   16.6660    2.6128 C.3     1  UNL1        0.1776
      2 H           3.5327   17.6085    2.0861 H       1  UNL1        0.0927
      3 O           4.6175   15.9381    2.5342 O.3     1  UNL1       -0.3422
      4 C           5.1288   15.6885    1.1950 C.3     1  UNL1        0.1055
      5 H           6.1126   15.2310    1.3641 H       1  UNL1        0.0639
      6 C           5.3448   17.0111    0.3781 C.3     1  UNL1        0.0355
      7 H           4.3739   17.4959    0.2263 H       1  UNL1        0.0485
      8 C           5.9263   16.7438   -1.0167 C.3     1  UNL1       -0.0175
      9 C           5.0057   15.7985   -1.7894 C.3     1  UNL1        0.0351
     10 H           4.0059   16.2469   -1.8532 H       1  UNL1        0.0485
     11 N           5.4443   15.6129   -3.1783 N.3     1  UNL1       -0.3250
     12 C           4.8957   14.4441   -1.0460 C.3     1  UNL1        0.0990
     13 H           5.8939   13.9991   -0.9674 H       1  UNL1        0.0636
     14 C           4.2825   14.6812    0.3522 C.3     1  UNL1        0.1166
     15 H           3.3157   15.1482    0.1449 H       1  UNL1        0.0650
     16 O           3.9095   13.4709    1.0105 O.3     1  UNL1       -0.3402
     17 C           4.9143   12.5607    1.4438 C.3     1  UNL1        0.1887
     18 H           5.5590   13.0507    2.1787 H       1  UNL1        0.0938
     19 C           4.1725   11.3702    2.0716 C.3     1  UNL1        0.1380
     20 H           3.1697   11.3171    1.6210 H       1  UNL1        0.0674
     21 O           4.0076   11.5971    3.4660 O.3     1  UNL1       -0.3676
     22 C           3.0969   10.7385    4.1431 C.3     1  UNL1        0.0608
     23 C           2.4458   11.5556    5.2803 C.3     1  UNL1        0.0194
     24 N           1.4313   12.5356    4.8414 N.3     1  UNL1       -0.3135
     25 C           0.1712   11.9405    4.3715 C.3     1  UNL1       -0.0000
     26 C          -0.5944   11.1457    5.4410 C.3     1  UNL1       -0.0151
     27 C          -1.8306   10.4875    4.8896 C.ar    1  UNL1       -0.0462
     28 C          -1.7320    9.2137    4.3031 C.ar    1  UNL1       -0.0585
     29 C          -2.8704    8.5850    3.7962 C.ar    1  UNL1       -0.0615
     30 C          -4.1141    9.2221    3.8560 C.ar    1  UNL1       -0.0617
     31 C          -4.2160   10.4782    4.4384 C.ar    1  UNL1       -0.0615
     32 C          -3.0749   11.1111    4.9435 C.ar    1  UNL1       -0.0585
     33 C           4.9719   10.1648    1.5976 C.3     1  UNL1        0.1208
     34 H           4.2528    9.3762    1.3441 H       1  UNL1        0.0651
     35 O           5.8172    9.4948    2.5123 O.3     1  UNL1       -0.3410
     36 C           7.0728    9.9635    3.0051 C.3     1  UNL1        0.1776
     37 H           7.6650   10.4490    2.2175 H       1  UNL1        0.0927
     38 C           7.7911    8.6443    3.4859 C.3     1  UNL1        0.0853
     39 H           8.0783    8.0668    2.5989 H       1  UNL1        0.0535
     40 N           6.8235    7.7984    4.2504 N.3     1  UNL1       -0.3211
     41 C           9.0451    8.9350    4.3358 C.3     1  UNL1        0.1033
     42 H           9.3826    7.9910    4.7817 H       1  UNL1        0.0637
     43 O          10.1621    9.3922    3.5737 O.3     1  UNL1       -0.3874
     44 C           8.7192    9.9107    5.4648 C.3     1  UNL1        0.1100
     45 H           9.6423   10.2176    5.9722 H       1  UNL1        0.0646
     46 O           7.8964    9.2414    6.4326 O.3     1  UNL1       -0.3866
     47 C           8.0045   11.1665    4.9101 C.3     1  UNL1        0.1022
     48 H           8.7172   11.7549    4.3155 H       1  UNL1        0.0636
     49 O           6.8665   10.8555    4.0897 O.3     1  UNL1       -0.3425
     50 C           7.5040   12.0065    6.1127 C.3     1  UNL1        0.0222
     51 N           6.9162   13.2968    5.7559 N.3     1  UNL1       -0.3276
     52 C           5.6471   10.6401    0.3108 C.3     1  UNL1        0.1135
     53 H           6.6720   10.2667    0.2270 H       1  UNL1        0.0647
     54 O           5.7272   12.0746    0.3696 O.3     1  UNL1       -0.3405
     55 C           4.9132   10.2152   -0.9750 C.3     1  UNL1        0.0730
     56 O           3.5490   10.6197   -0.9960 O.3     1  UNL1       -0.3924
     57 O           4.0749   13.5266   -1.7961 O.3     1  UNL1       -0.3876
     58 N           6.2018   17.9875    1.0671 N.3     1  UNL1       -0.3250
     59 C           3.0409   17.0327    4.0920 C.3     1  UNL1        0.0853
     60 H           3.8452   17.6609    4.4963 H       1  UNL1        0.0535
     61 N           2.9010   15.8612    4.9929 N.3     1  UNL1       -0.3211
     62 C           1.7089   17.8347    4.0865 C.3     1  UNL1        0.1033
     63 H           1.3800   17.9685    5.1240 H       1  UNL1        0.0637
     64 O           1.8570   19.1627    3.5631 O.3     1  UNL1       -0.3874
     65 C           0.5993   17.0909    3.3131 C.3     1  UNL1        0.1109
     66 H          -0.2689   17.7440    3.1782 H       1  UNL1        0.0646
     67 O           0.1333   15.9561    4.0571 O.3     1  UNL1       -0.3865
     68 C           1.0824   16.6175    1.9272 C.3     1  UNL1        0.1129
     69 H           0.3954   15.8527    1.5464 H       1  UNL1        0.0647
     70 O           2.3327   15.9275    2.0365 O.3     1  UNL1       -0.3415
     71 C           1.1170   17.7575    0.8859 C.3     1  UNL1        0.0730
     72 O           1.5845   17.3116   -0.3889 O.3     1  UNL1       -0.3924
     73 H           6.9352   16.3174   -0.9341 H       1  UNL1        0.0297
     74 H           6.0248   17.6923   -1.5617 H       1  UNL1        0.0297
     75 H           6.2942   15.0490   -3.2057 H       1  UNL1        0.1185
     76 H           5.6883   16.5154   -3.5881 H       1  UNL1        0.1185
     77 H           3.6666    9.9114    4.5786 H       1  UNL1        0.0573
     78 H           2.3408   10.3152    3.4733 H       1  UNL1        0.0573
     79 H           3.2302   12.1377    5.7797 H       1  UNL1        0.0446
     80 H           2.0365   10.8917    6.0460 H       1  UNL1        0.0446
     81 H           1.8369   13.0570    4.0597 H       1  UNL1        0.1220
     82 H           0.3517   11.3257    3.4828 H       1  UNL1        0.0427
     83 H          -0.4708   12.7645    4.0330 H       1  UNL1        0.0427
     84 H          -0.8707   11.8049    6.2746 H       1  UNL1        0.0325
     85 H           0.0317   10.3599    5.8766 H       1  UNL1        0.0325
     86 H          -0.7742    8.7039    4.2365 H       1  UNL1        0.0620
     87 H          -2.7890    7.5953    3.3378 H       1  UNL1        0.0618
     88 H          -4.9915    8.7108    3.4714 H       1  UNL1        0.0618
     89 H          -5.1786   10.9683    4.4950 H       1  UNL1        0.0618
     90 H          -3.1646   12.0992    5.3878 H       1  UNL1        0.0620
     91 H           6.2314    8.4697    4.7618 H       1  UNL1        0.1187
     92 H           7.3012    7.2906    4.9902 H       1  UNL1        0.1187
     93 H           9.8750   10.0306    2.9018 H       1  UNL1        0.2100
     94 H           8.3709    9.2232    7.2807 H       1  UNL1        0.2100
     95 H           8.3325   12.1818    6.8095 H       1  UNL1        0.0448
     96 H           6.7318   11.4415    6.6475 H       1  UNL1        0.0448
     97 H           7.5747   13.8728    5.2420 H       1  UNL1        0.1183
     98 H           6.6513   13.7943    6.6028 H       1  UNL1        0.1183
     99 H           5.3978   10.6443   -1.8589 H       1  UNL1        0.0584
    100 H           4.9400    9.1243   -1.0754 H       1  UNL1        0.0584
    101 H           3.5507   11.5671   -1.2587 H       1  UNL1        0.2095
    102 H           3.7431   14.0293   -2.5642 H       1  UNL1        0.2100
    103 H           5.7835   18.2475    1.9587 H       1  UNL1        0.1185
    104 H           6.2630   18.8430    0.5135 H       1  UNL1        0.1185
    105 H           2.7546   15.0265    4.4099 H       1  UNL1        0.1187
    106 H           3.8131   15.6591    5.4123 H       1  UNL1        0.1187
    107 H           2.6970   19.2579    3.0880 H       1  UNL1        0.2100
    108 H           0.8221   15.7161    4.7144 H       1  UNL1        0.2100
    109 H           0.1169   18.1834    0.7531 H       1  UNL1        0.0584
    110 H           1.7851   18.5691    1.1739 H       1  UNL1        0.0584
    111 H           0.8639   16.7959   -0.7948 H       1  UNL1        0.2095
@<TRIPOS>BOND
     1     1    59    1
     2     1    70    1
     3     1     3    1
     4     1     2    1
     5     4     6    1
     6     4     5    1
     7     4     3    1
     8     6     7    1
     9     6     8    1
    10     6    58    1
    11     8     9    1
    12     8    73    1
    13     8    74    1
    14     9    12    1
    15     9    11    1
    16     9    10    1
    17    11    75    1
    18    11    76    1
    19    12    13    1
    20    12    14    1
    21    12    57    1
    22    14     4    1
    23    14    16    1
    24    14    15    1
    25    16    17    1
    26    17    18    1
    27    17    19    1
    28    17    54    1
    29    19    21    1
    30    19    20    1
    31    21    22    1
    32    22    23    1
    33    22    77    1
    34    22    78    1
    35    23    24    1
    36    23    79    1
    37    23    80    1
    38    24    25    1
    39    24    81    1
    40    25    26    1
    41    25    82    1
    42    25    83    1
    43    26    27    1
    44    26    84    1
    45    26    85    1
    46    27    28   ar
    47    27    32   ar
    48    28    29   ar
    49    28    86    1
    50    29    30   ar
    51    29    87    1
    52    30    31   ar
    53    30    88    1
    54    31    32   ar
    55    31    89    1
    56    32    90    1
    57    33    19    1
    58    33    34    1
    59    33    35    1
    60    36    38    1
    61    36    49    1
    62    36    37    1
    63    36    35    1
    64    38    41    1
    65    38    40    1
    66    38    39    1
    67    40    91    1
    68    40    92    1
    69    41    44    1
    70    41    43    1
    71    41    42    1
    72    43    93    1
    73    44    45    1
    74    44    46    1
    75    44    47    1
    76    46    94    1
    77    47    48    1
    78    47    49    1
    79    47    50    1
    80    50    51    1
    81    50    95    1
    82    50    96    1
    83    51    97    1
    84    51    98    1
    85    52    33    1
    86    52    54    1
    87    52    55    1
    88    52    53    1
    89    55    56    1
    90    55    99    1
    91    55   100    1
    92    56   101    1
    93    57   102    1
    94    58   103    1
    95    58   104    1
    96    59    62    1
    97    59    61    1
    98    59    60    1
    99    61   105    1
   100    61   106    1
   101    62    64    1
   102    62    63    1
   103    64   107    1
   104    65    62    1
   105    65    66    1
   106    65    67    1
   107    67   108    1
   108    68    65    1
   109    68    70    1
   110    68    71    1
   111    68    69    1
   112    71    72    1
   113    71   109    1
   114    71   110    1
   115    72   111    1
