REMARK  28 active torsions:
REMARK  status: ('A' for Active; 'I' for Inactive)
REMARK    1  A    between atoms: C_1  and  O_2 
REMARK    2  A    between atoms: C_3  and  O_2 
REMARK    3  A    between atoms: C_4  and  N_43 
REMARK    4  A    between atoms: C_6  and  N_7 
REMARK    5  A    between atoms: C_8  and  O_42 
REMARK    6  A    between atoms: C_9  and  O_10 
REMARK    7  A    between atoms: O_10  and  C_11 
REMARK    8  A    between atoms: C_12  and  O_13 
REMARK    9  A    between atoms: O_13  and  C_14 
REMARK   10  A    between atoms: C_14  and  C_15 
REMARK   11  A    between atoms: C_15  and  N_16 
REMARK   12  A    between atoms: N_16  and  C_17 
REMARK   13  A    between atoms: C_17  and  C_18 
REMARK   14  A    between atoms: C_18  and  C_19 
REMARK   15  A    between atoms: C_25  and  O_26 
REMARK   16  A    between atoms: C_27  and  O_26 
REMARK   17  A    between atoms: C_28  and  N_29 
REMARK   18  A    between atoms: C_30  and  O_31 
REMARK   19  A    between atoms: C_32  and  O_33 
REMARK   20  A    between atoms: C_34  and  C_36 
REMARK   21  A    between atoms: C_36  and  N_37 
REMARK   22  A    between atoms: C_38  and  C_40 
REMARK   23  A    between atoms: C_40  and  O_41 
REMARK   24  A    between atoms: C_44  and  N_45 
REMARK   25  A    between atoms: C_46  and  O_47 
REMARK   26  A    between atoms: C_48  and  O_49 
REMARK   27  A    between atoms: C_50  and  C_52 
REMARK   28  A    between atoms: C_52  and  O_53 
ROOT
ATOM      1  C   UNL d   1       4.914  12.561   1.444  0.00  0.00     0.292 C 
ATOM      2  C   UNL d   1       4.173  11.370   2.072  0.00  0.00     0.208 C 
ATOM      3  C   UNL d   1       4.972  10.165   1.598  0.00  0.00     0.189 C 
ATOM      4  C   UNL d   1       5.647  10.640   0.311  0.00  0.00     0.180 C 
ATOM      5  O   UNL d   1       5.727  12.075   0.370  0.00  0.00    -0.348 OA
ENDROOT
BRANCH   1   6
ATOM      6  O   UNL d   1       3.909  13.471   1.010  0.00  0.00    -0.348 OA
BRANCH   6   7
ATOM      7  C   UNL d   1       4.282  14.681   0.352  0.00  0.00     0.186 C 
ATOM      8  C   UNL d   1       4.896  14.444  -1.046  0.00  0.00     0.182 C 
ATOM      9  C   UNL d   1       5.006  15.799  -1.789  0.00  0.00     0.251 C 
ATOM     10  C   UNL d   1       5.926  16.744  -1.017  0.00  0.00     0.076 C 
ATOM     11  C   UNL d   1       5.345  17.011   0.378  0.00  0.00     0.251 C 
ATOM     12  C   UNL d   1       5.129  15.688   1.195  0.00  0.00     0.189 C 
BRANCH   8  13
ATOM     13  O   UNL d   1       4.075  13.527  -1.796  0.00  0.00    -0.391 OA
ATOM     14  H   UNL d   1       3.743  14.029  -2.564  0.00  0.00     0.210 HD
ENDBRANCH   8  13
BRANCH   9  15
ATOM     15  N   UNL d   1       5.444  15.613  -3.178  0.00  0.00     0.085 N 
ATOM     16  H   UNL d   1       6.294  15.049  -3.206  0.00  0.00     0.313 HD
ATOM     17  H   UNL d   1       5.688  16.515  -3.588  0.00  0.00     0.313 HD
ENDBRANCH   9  15
BRANCH  11  18
ATOM     18  N   UNL d   1       6.202  17.988   1.067  0.00  0.00     0.085 N 
ATOM     19  H   UNL d   1       5.784  18.247   1.959  0.00  0.00     0.313 HD
ATOM     20  H   UNL d   1       6.263  18.843   0.513  0.00  0.00     0.313 HD
ENDBRANCH  11  18
BRANCH  12  21
ATOM     21  O   UNL d   1       4.617  15.938   2.534  0.00  0.00    -0.349 OA
BRANCH  21  22
ATOM     22  C   UNL d   1       3.391  16.666   2.613  0.00  0.00     0.296 C 
ATOM     23  C   UNL d   1       3.041  17.033   4.092  0.00  0.00     0.303 C 
ATOM     24  C   UNL d   1       1.709  17.835   4.087  0.00  0.00     0.187 C 
ATOM     25  C   UNL d   1       0.599  17.091   3.313  0.00  0.00     0.180 C 
ATOM     26  C   UNL d   1       1.082  16.617   1.927  0.00  0.00     0.179 C 
ATOM     27  O   UNL d   1       2.333  15.928   2.037  0.00  0.00    -0.349 OA
BRANCH  23  28
ATOM     28  N   UNL d   1       2.901  15.861   4.993  0.00  0.00     0.090 N 
ATOM     29  H   UNL d   1       2.755  15.027   4.410  0.00  0.00     0.313 HD
ATOM     30  H   UNL d   1       3.813  15.659   5.412  0.00  0.00     0.313 HD
ENDBRANCH  23  28
BRANCH  24  31
ATOM     31  O   UNL d   1       1.857  19.163   3.563  0.00  0.00    -0.391 OA
ATOM     32  H   UNL d   1       2.697  19.258   3.088  0.00  0.00     0.210 HD
ENDBRANCH  24  31
BRANCH  25  33
ATOM     33  O   UNL d   1       0.133  15.956   4.057  0.00  0.00    -0.390 OA
ATOM     34  H   UNL d   1       0.822  15.716   4.714  0.00  0.00     0.210 HD
ENDBRANCH  25  33
BRANCH  26  35
ATOM     35  C   UNL d   1       1.117  17.758   0.886  0.00  0.00     0.198 C 
BRANCH  35  36
ATOM     36  O   UNL d   1       1.585  17.312  -0.389  0.00  0.00    -0.398 OA
ATOM     37  H   UNL d   1       0.864  16.796  -0.795  0.00  0.00     0.209 HD
ENDBRANCH  35  36
ENDBRANCH  26  35
ENDBRANCH  21  22
ENDBRANCH  12  21
ENDBRANCH   6   7
ENDBRANCH   1   6
BRANCH   2  38
ATOM     38  O   UNL d   1       4.008  11.597   3.466  0.00  0.00    -0.377 OA
BRANCH  38  39
ATOM     39  C   UNL d   1       3.097  10.739   4.143  0.00  0.00     0.198 C 
BRANCH  39  40
ATOM     40  C   UNL d   1       2.446  11.556   5.280  0.00  0.00     0.295 C 
BRANCH  40  41
ATOM     41  N   UNL d   1       1.431  12.536   4.841  0.00  0.00     0.085 N 
ATOM     42  H   UNL d   1       1.837  13.057   4.060  0.00  0.00     0.315 HD
BRANCH  41  43
ATOM     43  C   UNL d   1       0.171  11.941   4.372  0.00  0.00     0.274 C 
BRANCH  43  44
ATOM     44  C   UNL d   1      -0.594  11.146   5.441  0.00  0.00     0.068 C 
BRANCH  44  45
ATOM     45  C   UNL d   1      -1.831  10.488   4.890  0.00  0.00    -0.057 A 
ATOM     46  C   UNL d   1      -1.732   9.214   4.303  0.00  0.00     0.007 A 
ATOM     47  C   UNL d   1      -2.870   8.585   3.796  0.00  0.00     0.001 A 
ATOM     48  C   UNL d   1      -4.114   9.222   3.856  0.00  0.00     0.000 A 
ATOM     49  C   UNL d   1      -4.216  10.478   4.438  0.00  0.00     0.001 A 
ATOM     50  C   UNL d   1      -3.075  11.111   4.944  0.00  0.00     0.007 A 
ENDBRANCH  44  45
ENDBRANCH  43  44
ENDBRANCH  41  43
ENDBRANCH  40  41
ENDBRANCH  39  40
ENDBRANCH  38  39
ENDBRANCH   2  38
BRANCH   3  51
ATOM     51  O   UNL d   1       5.817   9.495   2.512  0.00  0.00    -0.348 OA
BRANCH  51  52
ATOM     52  C   UNL d   1       7.073   9.963   3.005  0.00  0.00     0.296 C 
ATOM     53  C   UNL d   1       7.791   8.644   3.486  0.00  0.00     0.303 C 
ATOM     54  C   UNL d   1       9.045   8.935   4.336  0.00  0.00     0.187 C 
ATOM     55  C   UNL d   1       8.719   9.911   5.465  0.00  0.00     0.179 C 
ATOM     56  C   UNL d   1       8.005  11.166   4.910  0.00  0.00     0.183 C 
ATOM     57  O   UNL d   1       6.867  10.855   4.090  0.00  0.00    -0.349 OA
BRANCH  53  58
ATOM     58  N   UNL d   1       6.824   7.798   4.250  0.00  0.00     0.090 N 
ATOM     59  H   UNL d   1       6.231   8.470   4.762  0.00  0.00     0.313 HD
ATOM     60  H   UNL d   1       7.301   7.291   4.990  0.00  0.00     0.313 HD
ENDBRANCH  53  58
BRANCH  54  61
ATOM     61  O   UNL d   1      10.162   9.392   3.574  0.00  0.00    -0.391 OA
ATOM     62  H   UNL d   1       9.875  10.031   2.902  0.00  0.00     0.210 HD
ENDBRANCH  54  61
BRANCH  55  63
ATOM     63  O   UNL d   1       7.896   9.241   6.433  0.00  0.00    -0.390 OA
ATOM     64  H   UNL d   1       8.371   9.223   7.281  0.00  0.00     0.210 HD
ENDBRANCH  55  63
BRANCH  56  65
ATOM     65  C   UNL d   1       7.504  12.007   6.113  0.00  0.00     0.301 C 
BRANCH  65  66
ATOM     66  N   UNL d   1       6.916  13.297   5.756  0.00  0.00     0.080 N 
ATOM     67  H   UNL d   1       7.575  13.873   5.242  0.00  0.00     0.312 HD
ATOM     68  H   UNL d   1       6.651  13.794   6.603  0.00  0.00     0.312 HD
ENDBRANCH  65  66
ENDBRANCH  56  65
ENDBRANCH  51  52
ENDBRANCH   3  51
BRANCH   4  69
ATOM     69  C   UNL d   1       4.913  10.215  -0.975  0.00  0.00     0.198 C 
BRANCH  69  70
ATOM     70  O   UNL d   1       3.549  10.620  -0.996  0.00  0.00    -0.398 OA
ATOM     71  H   UNL d   1       3.551  11.567  -1.259  0.00  0.00     0.209 HD
ENDBRANCH  69  70
ENDBRANCH   4  69
TORSDOF 28
